
     RDKit          3D

 33 35  0  0  0  0  0  0  0  0999 V2000
    1.3531   -3.6772    3.1879 O   0  0  0  0  0  0  0  0  0  0  0  0
    0.9698   -3.2133    2.1298 C   0  0  0  0  0  0  0  0  0  0  0  0
    0.9339   -4.0562    0.9929 N   0  0  0  0  0  0  0  0  0  0  0  0
    0.5053   -3.6036   -0.2556 C   0  0  0  0  0  0  0  0  0  0  0  0
    0.1063   -2.3778   -0.5038 N   0  0  0  0  0  0  0  0  0  0  0  0
    0.1105   -1.4856    0.5498 C   0  0  0  0  0  0  0  0  0  0  0  0
   -0.2653   -0.1180    0.6246 C   0  0  0  0  0  0  0  0  0  0  0  0
   -0.7975    0.6893   -0.4963 C   0  0  2  0  0  0  0  0  0  0  0  0
   -2.2080    0.1317   -0.8630 C   0  0  0  0  0  0  0  0  0  0  0  0
   -3.0599    0.2014    0.2577 O   0  0  0  0  0  0  0  0  0  0  0  0
    0.1432    0.6267   -1.6423 N   0  0  0  0  0  0  0  0  0  0  0  0
   -0.1289    1.7911   -2.5185 C   0  0  0  0  0  0  0  0  0  0  0  0
   -0.8114    2.8576   -1.6257 C   0  0  2  0  0  0  0  0  0  0  0  0
   -0.0109    4.0083   -1.4965 O   0  0  0  0  0  0  0  0  0  0  0  0
   -0.9213    2.2198   -0.2072 C   0  0  2  0  0  0  0  0  0  0  0  0
    0.0948    2.6518    0.6458 O   0  0  0  0  0  0  0  0  0  0  0  0
   -0.0665    0.2803    1.9606 C   0  0  0  0  0  0  0  0  0  0  0  0
    0.4030   -0.7799    2.6978 N   0  0  0  0  0  0  0  0  0  0  0  0
    0.5257   -1.8763    1.8580 C   0  0  0  0  0  0  0  0  0  0  0  0
    1.2389   -5.0271    1.1066 H   0  0  0  0  0  0  0  0  0  0  0  0
    0.5101   -4.3463   -1.0756 H   0  0  0  0  0  0  0  0  0  0  0  0
   -2.7195    0.7439   -1.6244 H   0  0  0  0  0  0  0  0  0  0  0  0
   -2.1430   -0.9160   -1.2094 H   0  0  0  0  0  0  0  0  0  0  0  0
   -2.6561   -0.2824    1.0154 H   0  0  0  0  0  0  0  0  0  0  0  0
    0.1067   -0.2733   -2.1178 H   0  0  0  0  0  0  0  0  0  0  0  0
   -0.7502    1.5391   -3.3983 H   0  0  0  0  0  0  0  0  0  0  0  0
    0.8485    2.1596   -2.9014 H   0  0  0  0  0  0  0  0  0  0  0  0
   -1.8027    3.1649   -2.0165 H   0  0  0  0  0  0  0  0  0  0  0  0
    0.1527    4.4126   -2.3772 H   0  0  0  0  0  0  0  0  0  0  0  0
   -1.8528    2.4874    0.3305 H   0  0  0  0  0  0  0  0  0  0  0  0
    0.9760    2.5427    0.2092 H   0  0  0  0  0  0  0  0  0  0  0  0
   -0.2369    1.2548    2.4033 H   0  0  0  0  0  0  0  0  0  0  0  0
    0.6303   -0.7836    3.6771 H   0  0  0  0  0  0  0  0  0  0  0  0
  1  2  2  0
  2  3  1  0
  3  4  1  0
  4  5  2  0
  5  6  1  0
  6  7  1  0
  7  8  1  0
  8  9  1  6
  9 10  1  0
  8 11  1  0
 11 12  1  0
 12 13  1  0
 13 14  1  0
 13 15  1  0
 15 16  1  0
  7 17  2  0
 17 18  1  0
 18 19  1  0
 19  2  1  0
 19  6  2  0
 15  8  1  0
  3 20  1  0
  4 21  1  0
  9 22  1  0
  9 23  1  0
 10 24  1  0
 11 25  1  0
 12 26  1  0
 12 27  1  0
 13 28  1  6
 14 29  1  0
 15 30  1  1
 16 31  1  0
 17 32  1  0
 18 33  1  0
A    1
-0.591935
A    2
0.495636
A    3
-0.369857
A    4
0.238652
A    5
-0.407309
A    6
0.134528
A    7
-0.137508
A    8
0.134210
A    9
0.035952
A   10
-0.536799
A   11
-0.465837
A   12
-0.060929
A   13
0.172560
A   14
-0.568447
A   15
0.132953
A   16
-0.509162
A   17
-0.009592
A   18
-0.217826
A   19
-0.064497
A   20
0.338381
A   21
0.092344
A   22
0.074500
A   23
0.052324
A   24
0.353315
A   25
0.252630
A   26
0.055900
A   27
0.068345
A   28
0.033262
A   29
0.385120
A   30
0.065902
A   31
0.370967
A   32
0.131496
A   33
0.320721
M  END
$$$$
