
     RDKit          3D

 31 32  0  0  0  0  0  0  0  0999 V2000
   -0.8592   -1.5518   -1.2426 O   0  0  0  0  0  0  0  0  0  0  0  0
   -0.3481   -1.4108   -0.1424 C   0  0  0  0  0  0  0  0  0  0  0  0
    0.4039   -2.4555    0.4261 N   0  0  0  0  0  0  0  0  0  0  0  0
    0.7027   -3.6842   -0.1761 C   0  0  0  0  0  0  0  0  0  0  0  0
    0.2090   -4.0794   -1.4296 C   0  0  0  0  0  0  0  0  0  0  0  0
    0.5647   -5.3179   -1.9510 C   0  0  0  0  0  0  0  0  0  0  0  0
    1.4036   -6.1782   -1.2449 C   0  0  0  0  0  0  0  0  0  0  0  0
    1.8901   -5.7905    0.0028 C   0  0  0  0  0  0  0  0  0  0  0  0
    1.5485   -4.5578    0.5410 C   0  0  0  0  0  0  0  0  0  0  0  0
   -0.4547   -0.1861    0.6297 C   0  0  0  0  0  0  0  0  0  0  0  0
    0.3208   -0.0079    1.7152 N   0  0  0  0  0  0  0  0  0  0  0  0
    0.2491    1.0395    2.3485 O   0  0  0  0  0  0  0  0  0  0  0  0
   -1.4385    0.7903    0.1361 C   0  0  0  0  0  0  0  0  0  0  0  0
   -2.6335    0.5824    0.2039 O   0  0  0  0  0  0  0  0  0  0  0  0
   -0.9492    2.0651   -0.4579 C   0  0  0  0  0  0  0  0  0  0  0  0
    0.4147    2.3178   -0.6093 C   0  0  0  0  0  0  0  0  0  0  0  0
    0.8411    3.5171   -1.1758 C   0  0  0  0  0  0  0  0  0  0  0  0
   -0.0937    4.4618   -1.5956 C   0  0  0  0  0  0  0  0  0  0  0  0
   -1.4574    4.2088   -1.4501 C   0  0  0  0  0  0  0  0  0  0  0  0
   -1.8847    3.0123   -0.8806 C   0  0  0  0  0  0  0  0  0  0  0  0
    0.8260   -2.2764    1.3429 H   0  0  0  0  0  0  0  0  0  0  0  0
   -0.4513   -3.4251   -2.0014 H   0  0  0  0  0  0  0  0  0  0  0  0
    0.1819   -5.6185   -2.9270 H   0  0  0  0  0  0  0  0  0  0  0  0
    1.6758   -7.1419   -1.6624 H   0  0  0  0  0  0  0  0  0  0  0  0
    2.5446   -6.4616    0.5578 H   0  0  0  0  0  0  0  0  0  0  0  0
    1.9346   -4.2665    1.5157 H   0  0  0  0  0  0  0  0  0  0  0  0
    1.1493    1.5783   -0.2816 H   0  0  0  0  0  0  0  0  0  0  0  0
    1.9047    3.7165   -1.2900 H   0  0  0  0  0  0  0  0  0  0  0  0
    0.2406    5.3984   -2.0387 H   0  0  0  0  0  0  0  0  0  0  0  0
   -2.1855    4.9452   -1.7809 H   0  0  0  0  0  0  0  0  0  0  0  0
   -2.9521    2.8074   -0.7643 H   0  0  0  0  0  0  0  0  0  0  0  0
  1  2  2  0
  2  3  1  0
  3  4  1  0
  4  5  2  0
  5  6  1  0
  6  7  2  0
  7  8  1  0
  8  9  2  0
  2 10  1  0
 10 11  2  3
 11 12  1  0
 10 13  1  0
 13 14  2  0
 13 15  1  0
 15 16  2  0
 16 17  1  0
 17 18  2  0
 18 19  1  0
 19 20  2  0
  9  4  1  0
 20 15  1  0
  3 21  1  0
  5 22  1  0
  6 23  1  0
  7 24  1  0
  8 25  1  0
  9 26  1  0
 16 27  1  0
 17 28  1  0
 18 29  1  0
 19 30  1  0
 20 31  1  0
M  CHG  1  12  -1
A    1
-0.578494
A    2
0.508297
A    3
-0.426884
A    4
0.259572
A    5
-0.220293
A    6
-0.089650
A    7
-0.154365
A    8
-0.088682
A    9
-0.219415
A   10
-0.227339
A   11
-0.064936
A   12
-0.493081
A   13
0.437624
A   14
-0.506953
A   15
-0.045979
A   16
-0.090528
A   17
-0.109986
A   18
-0.077537
A   19
-0.107364
A   20
-0.097913
A   21
0.268212
A   22
0.122866
A   23
0.106940
A   24
0.105157
A   25
0.107818
A   26
0.126900
A   27
0.107228
A   28
0.113516
A   29
0.112213
A   30
0.113794
A   31
0.109263
M  END
$$$$
