
     RDKit          3D

 36 37  0  0  0  0  0  0  0  0999 V2000
    0.2377   -0.3480    1.6881 S   0  0  0  0  0  0  0  0  0  0  0  0
   -0.2898    0.6692    0.3417 C   0  0  0  0  0  0  0  0  0  0  0  0
    0.2453    1.9245    0.0928 N   0  0  0  0  0  0  0  0  0  0  0  0
    1.6099    2.2294    0.0071 C   0  0  0  0  0  0  0  0  0  0  0  0
    1.9089    3.3940   -0.1534 O   0  0  0  0  0  0  0  0  0  0  0  0
    2.6050    1.1491    0.0905 C   0  0  0  0  0  0  0  0  0  0  0  0
    2.1773   -0.0093   -0.5131 O   0  0  0  0  0  0  0  0  0  0  0  0
    3.2720   -0.8258   -0.9243 C   0  0  0  0  0  0  0  0  0  0  0  0
    4.2428   -0.9923    0.2407 C   0  0  0  0  0  0  0  0  0  0  0  0
    4.7365    0.2803    0.6715 O   0  0  0  0  0  0  0  0  0  0  0  0
    3.8245    1.2783    0.6465 C   0  0  0  0  0  0  0  0  0  0  0  0
   -1.3713    0.1015   -0.2854 C   0  0  0  0  0  0  0  0  0  0  0  0
   -2.0480    0.6733   -1.4620 C   0  0  0  0  0  0  0  0  0  0  0  0
   -1.9770    0.1951   -2.5771 O   0  0  0  0  0  0  0  0  0  0  0  0
   -2.7449    1.8667   -1.3113 N   0  0  0  0  0  0  0  0  0  0  0  0
   -3.1768    2.3913   -0.0182 C   0  0  0  0  0  0  0  0  0  0  0  0
   -1.7489   -1.1783    0.2573 C   0  0  0  0  0  0  0  0  0  0  0  0
   -0.9828   -1.5575    1.3232 C   0  0  0  0  0  0  0  0  0  0  0  0
   -1.0666   -2.8015    2.1054 C   0  0  0  0  0  0  0  0  0  0  0  0
   -2.8564   -1.9634   -0.3332 C   0  0  0  0  0  0  0  0  0  0  0  0
   -0.4133    2.6394   -0.2367 H   0  0  0  0  0  0  0  0  0  0  0  0
    3.7496   -0.3622   -1.8063 H   0  0  0  0  0  0  0  0  0  0  0  0
    2.7744   -1.7681   -1.2165 H   0  0  0  0  0  0  0  0  0  0  0  0
    5.1632   -1.5366   -0.0300 H   0  0  0  0  0  0  0  0  0  0  0  0
    3.7622   -1.4680    1.1151 H   0  0  0  0  0  0  0  0  0  0  0  0
    4.2498    2.1631    1.1098 H   0  0  0  0  0  0  0  0  0  0  0  0
   -3.2267    2.2329   -2.1244 H   0  0  0  0  0  0  0  0  0  0  0  0
   -4.2607    2.2412    0.1362 H   0  0  0  0  0  0  0  0  0  0  0  0
   -2.9662    3.4754    0.0348 H   0  0  0  0  0  0  0  0  0  0  0  0
   -2.6574    1.9015    0.8238 H   0  0  0  0  0  0  0  0  0  0  0  0
   -0.4587   -3.6035    1.6518 H   0  0  0  0  0  0  0  0  0  0  0  0
   -0.7290   -2.6926    3.1469 H   0  0  0  0  0  0  0  0  0  0  0  0
   -2.1019   -3.1785    2.1581 H   0  0  0  0  0  0  0  0  0  0  0  0
   -2.8209   -1.9309   -1.4390 H   0  0  0  0  0  0  0  0  0  0  0  0
   -2.8253   -3.0229   -0.0467 H   0  0  0  0  0  0  0  0  0  0  0  0
   -3.8370   -1.5659   -0.0320 H   0  0  0  0  0  0  0  0  0  0  0  0
  1  2  1  0
  2  3  1  0
  3  4  1  0
  4  5  2  0
  4  6  1  0
  6  7  1  0
  7  8  1  0
  8  9  1  0
  9 10  1  0
 10 11  1  0
  2 12  2  0
 12 13  1  0
 13 14  2  0
 13 15  1  0
 15 16  1  0
 12 17  1  0
 17 18  2  0
 18 19  1  0
 17 20  1  0
 18  1  1  0
  6 11  2  0
  3 21  1  0
  8 22  1  0
  8 23  1  0
  9 24  1  0
  9 25  1  0
 11 26  1  0
 15 27  1  0
 16 28  1  0
 16 29  1  0
 16 30  1  0
 19 31  1  0
 19 32  1  0
 19 33  1  0
 20 34  1  0
 20 35  1  0
 20 36  1  0
A    1
-0.025420
A    2
0.138329
A    3
-0.395431
A    4
0.524749
A    5
-0.551996
A    6
-0.026061
A    7
-0.222200
A    8
0.017970
A    9
0.017608
A   10
-0.182371
A   11
-0.016722
A   12
-0.215411
A   13
0.560870
A   14
-0.573488
A   15
-0.385295
A   16
-0.168204
A   17
0.063606
A   18
0.019832
A   19
-0.348573
A   20
-0.353146
A   21
0.304813
A   22
0.080534
A   23
0.100837
A   24
0.094845
A   25
0.075594
A   26
0.124284
A   27
0.308804
A   28
0.097077
A   29
0.096450
A   30
0.106813
A   31
0.118948
A   32
0.124855
A   33
0.128244
A   34
0.124504
A   35
0.118908
A   36
0.115845
M  END
$$$$
