
     RDKit          3D

 41 41  0  0  0  0  0  0  0  0999 V2000
    2.2239    4.0091    1.6479 C   0  0  0  0  0  0  0  0  0  0  0  0
    3.1084    2.8122    1.3490 C   0  0  0  0  0  0  0  0  0  0  0  0
    2.1726    1.7660    1.0362 O   0  0  0  0  0  0  0  0  0  0  0  0
    2.6801    0.5519    0.7358 C   0  0  0  0  0  0  0  0  0  0  0  0
    3.8693    0.3327    0.7539 O   0  0  0  0  0  0  0  0  0  0  0  0
    1.5906   -0.4261    0.3797 C   0  0  0  0  0  0  0  0  0  0  0  0
    1.0549   -1.1284    1.6564 C   0  0  0  0  0  0  0  0  0  0  0  0
    1.8455   -0.7514    2.9129 C   0  0  0  0  0  0  0  0  0  0  0  0
    1.0954   -2.6497    1.4676 C   0  0  0  0  0  0  0  0  0  0  0  0
    0.4482    0.2903   -0.3929 C   0  0  0  0  0  0  0  0  0  0  0  0
    1.0644    1.0637   -1.5039 N   0  0  0  0  0  0  0  0  0  0  0  0
   -0.5294   -0.7485   -0.9879 C   0  0  0  0  0  0  0  0  0  0  0  0
   -1.7345   -0.0713   -1.5597 C   0  0  0  0  0  0  0  0  0  0  0  0
   -1.8757    0.0532   -2.9445 C   0  0  0  0  0  0  0  0  0  0  0  0
   -2.9854    0.6960   -3.4867 C   0  0  0  0  0  0  0  0  0  0  0  0
   -3.9393    1.2035   -2.6073 C   0  0  0  0  0  0  0  0  0  0  0  0
   -5.0015    1.8178   -3.1121 F   0  0  0  0  0  0  0  0  0  0  0  0
   -3.8321    1.0916   -1.2224 C   0  0  0  0  0  0  0  0  0  0  0  0
   -2.7145    0.4438   -0.7051 C   0  0  0  0  0  0  0  0  0  0  0  0
    1.5233    4.2064    0.8250 H   0  0  0  0  0  0  0  0  0  0  0  0
    1.6219    3.8516    2.5522 H   0  0  0  0  0  0  0  0  0  0  0  0
    2.8255    4.9146    1.7991 H   0  0  0  0  0  0  0  0  0  0  0  0
    3.7176    2.4944    2.2126 H   0  0  0  0  0  0  0  0  0  0  0  0
    3.7618    2.9638    0.4716 H   0  0  0  0  0  0  0  0  0  0  0  0
    2.0542   -1.1880   -0.3051 H   0  0  0  0  0  0  0  0  0  0  0  0
   -0.0087   -0.8157    1.8178 H   0  0  0  0  0  0  0  0  0  0  0  0
    2.9048   -1.0287    2.8328 H   0  0  0  0  0  0  0  0  0  0  0  0
    1.7908    0.3229    3.1275 H   0  0  0  0  0  0  0  0  0  0  0  0
    1.4492   -1.2695    3.7952 H   0  0  0  0  0  0  0  0  0  0  0  0
    0.5456   -2.9672    0.5740 H   0  0  0  0  0  0  0  0  0  0  0  0
    0.6508   -3.1660    2.3270 H   0  0  0  0  0  0  0  0  0  0  0  0
    2.1245   -3.0159    1.3678 H   0  0  0  0  0  0  0  0  0  0  0  0
   -0.1028    0.9625    0.3162 H   0  0  0  0  0  0  0  0  0  0  0  0
    0.3739    1.3299   -2.1950 H   0  0  0  0  0  0  0  0  0  0  0  0
    1.4943    1.9103   -1.1509 H   0  0  0  0  0  0  0  0  0  0  0  0
   -0.8345   -1.4758   -0.2061 H   0  0  0  0  0  0  0  0  0  0  0  0
   -0.0007   -1.3545   -1.7549 H   0  0  0  0  0  0  0  0  0  0  0  0
   -1.1126   -0.3571   -3.6097 H   0  0  0  0  0  0  0  0  0  0  0  0
   -3.0987    0.7947   -4.5663 H   0  0  0  0  0  0  0  0  0  0  0  0
   -4.5985    1.4951   -0.5603 H   0  0  0  0  0  0  0  0  0  0  0  0
   -2.6042    0.3382    0.3760 H   0  0  0  0  0  0  0  0  0  0  0  0
  1  2  1  0
  2  3  1  0
  3  4  1  0
  4  5  2  0
  4  6  1  0
  6  7  1  0
  7  8  1  0
  7  9  1  0
  6 10  1  0
 10 11  1  0
 10 12  1  0
 12 13  1  0
 13 14  2  0
 14 15  1  0
 15 16  2  0
 16 17  1  0
 16 18  1  0
 18 19  2  0
 19 13  1  0
  1 20  1  0
  1 21  1  0
  1 22  1  0
  2 23  1  0
  2 24  1  0
  6 25  1  0
  7 26  1  0
  8 27  1  0
  8 28  1  0
  8 29  1  0
  9 30  1  0
  9 31  1  0
  9 32  1  0
 10 33  1  0
 11 34  1  0
 11 35  1  0
 12 36  1  0
 12 37  1  0
 14 38  1  0
 15 39  1  0
 18 40  1  0
 19 41  1  0
A    1
-0.367224
A    2
0.125157
A    3
-0.284052
A    4
0.606464
A    5
-0.557518
A    6
-0.213715
A    7
0.128109
A    8
-0.374227
A    9
-0.367906
A   10
0.190599
A   11
-0.708335
A   12
-0.227753
A   13
0.089135
A   14
-0.121782
A   15
-0.232144
A   16
0.294624
A   17
-0.172210
A   18
-0.232095
A   19
-0.116714
A   20
0.117338
A   21
0.116287
A   22
0.116576
A   23
0.064092
A   24
0.064575
A   25
0.101264
A   26
0.045889
A   27
0.112770
A   28
0.105366
A   29
0.107609
A   30
0.103033
A   31
0.105966
A   32
0.112800
A   33
0.019915
A   34
0.270494
A   35
0.278053
A   36
0.093172
A   37
0.097416
A   38
0.114906
A   39
0.139898
A   40
0.140794
A   41
0.113375
M  END
$$$$
