
     RDKit          3D

 34 35  0  0  0  0  0  0  0  0999 V2000
    3.2539   -1.0494   -1.7157 O   0  0  0  0  0  0  0  0  0  0  0  0
    2.8002   -0.5408   -0.7236 C   0  0  0  0  0  0  0  0  0  0  0  0
    1.4365   -0.3899   -0.4909 N   0  0  0  0  0  0  0  0  0  0  0  0
    0.9548    0.2105    0.5800 C   0  0  0  0  0  0  0  0  0  0  0  0
   -0.3855    0.2198    0.8035 N   0  0  0  0  0  0  0  0  0  0  0  0
   -1.3330   -0.3556   -0.1755 C   0  0  0  0  0  0  0  0  0  0  0  0
   -2.5934   -0.8075    0.5866 C   0  0  0  0  0  0  0  0  0  0  0  0
   -3.5957   -1.4006   -0.4105 C   0  0  0  0  0  0  0  0  0  0  0  0
   -3.9557   -0.3746   -1.4930 C   0  0  0  0  0  0  0  0  0  0  0  0
   -2.6963    0.0983   -2.2302 C   0  0  0  0  0  0  0  0  0  0  0  0
   -1.6821    0.6944   -1.2493 C   0  0  0  0  0  0  0  0  0  0  0  0
    1.8472    0.8654    1.5932 C   0  0  0  0  0  0  0  0  0  0  0  0
    1.3054    1.6249    2.4895 N   0  0  0  0  0  0  0  0  0  0  0  0
    2.1602    2.2058    3.3620 O   0  0  0  0  0  0  0  0  0  0  0  0
    3.3175    0.5835    1.4495 C   0  0  0  0  0  0  0  0  0  0  0  0
    4.1150    0.9219    2.2931 O   0  0  0  0  0  0  0  0  0  0  0  0
    3.7057   -0.0763    0.2933 N   0  0  0  0  0  0  0  0  0  0  0  0
    5.1360   -0.3344    0.0693 C   0  0  0  0  0  0  0  0  0  0  0  0
   -0.7636    0.7907    1.5487 H   0  0  0  0  0  0  0  0  0  0  0  0
   -0.8427   -1.2432   -0.6687 H   0  0  0  0  0  0  0  0  0  0  0  0
   -3.0540    0.0400    1.1256 H   0  0  0  0  0  0  0  0  0  0  0  0
   -2.3281   -1.5581    1.3548 H   0  0  0  0  0  0  0  0  0  0  0  0
   -3.1728   -2.3108   -0.8782 H   0  0  0  0  0  0  0  0  0  0  0  0
   -4.5077   -1.7297    0.1205 H   0  0  0  0  0  0  0  0  0  0  0  0
   -4.6718   -0.8161   -2.2102 H   0  0  0  0  0  0  0  0  0  0  0  0
   -4.4757    0.4889   -1.0388 H   0  0  0  0  0  0  0  0  0  0  0  0
   -2.2376   -0.7472   -2.7798 H   0  0  0  0  0  0  0  0  0  0  0  0
   -2.9631    0.8467   -2.9992 H   0  0  0  0  0  0  0  0  0  0  0  0
   -2.0844    1.6116   -0.7868 H   0  0  0  0  0  0  0  0  0  0  0  0
   -0.7600    0.9930   -1.7893 H   0  0  0  0  0  0  0  0  0  0  0  0
    1.5421    2.7534    3.9584 H   0  0  0  0  0  0  0  0  0  0  0  0
    5.4977    0.2586   -0.7903 H   0  0  0  0  0  0  0  0  0  0  0  0
    5.7351   -0.0691    0.9595 H   0  0  0  0  0  0  0  0  0  0  0  0
    5.2969   -1.4045   -0.1578 H   0  0  0  0  0  0  0  0  0  0  0  0
  1  2  2  0
  2  3  1  0
  3  4  2  0
  4  5  1  0
  5  6  1  0
  6  7  1  0
  7  8  1  0
  8  9  1  0
  9 10  1  0
 10 11  1  0
  4 12  1  0
 12 13  2  3
 13 14  1  0
 12 15  1  0
 15 16  2  0
 15 17  1  0
 17 18  1  0
 17  2  1  0
 11  6  1  0
  5 19  1  0
  6 20  1  0
  7 21  1  0
  7 22  1  0
  8 23  1  0
  8 24  1  0
  9 25  1  0
  9 26  1  0
 10 27  1  0
 10 28  1  0
 11 29  1  0
 11 30  1  0
 14 31  1  0
 18 32  1  0
 18 33  1  0
 18 34  1  0
A    1
-0.541247
A    2
0.647589
A    3
-0.576558
A    4
0.396343
A    5
-0.368650
A    6
0.172323
A    7
-0.184367
A    8
-0.118395
A    9
-0.127502
A   10
-0.121571
A   11
-0.186690
A   12
-0.041832
A   13
-0.067115
A   14
-0.300498
A   15
0.478426
A   16
-0.491229
A   17
-0.203645
A   18
-0.204291
A   19
0.285288
A   20
0.062394
A   21
0.081891
A   22
0.081193
A   23
0.071516
A   24
0.069499
A   25
0.066836
A   26
0.066622
A   27
0.072995
A   28
0.070965
A   29
0.080910
A   30
0.084584
A   31
0.391021
A   32
0.114362
A   33
0.122490
A   34
0.116341
M  END
$$$$
