
     RDKit          3D

 36 37  0  0  0  0  0  0  0  0999 V2000
    3.9941    1.6132    0.0228 O   0  0  0  0  0  0  0  0  0  0  0  0
    3.3730    0.5859    0.1971 C   0  0  0  0  0  0  0  0  0  0  0  0
    2.5346    0.1114   -0.8204 N   0  0  0  0  0  0  0  0  0  0  0  0
    2.1379    1.0657   -1.8718 C   0  0  0  0  0  0  0  0  0  0  0  0
    0.7062    1.4923   -1.7702 C   0  0  0  0  0  0  0  0  0  0  0  0
   -0.1847    0.9303   -0.9369 C   0  0  0  0  0  0  0  0  0  0  0  0
   -1.5633    1.3940   -0.8445 C   0  0  0  0  0  0  0  0  0  0  0  0
   -1.9022    2.5528   -1.5829 C   0  0  0  0  0  0  0  0  0  0  0  0
   -2.1870    3.4995   -2.1882 N   0  0  0  0  0  0  0  0  0  0  0  0
   -2.5160    0.7746   -0.0789 C   0  0  0  0  0  0  0  0  0  0  0  0
   -3.7914    1.2525    0.0480 N   0  0  0  0  0  0  0  0  0  0  0  0
   -2.1888   -0.4949    0.7175 C   0  0  0  0  0  0  0  0  0  0  0  0
   -3.3110   -1.4281    0.6733 C   0  0  0  0  0  0  0  0  0  0  0  0
   -4.1913   -2.1743    0.6289 N   0  0  0  0  0  0  0  0  0  0  0  0
   -1.9201   -0.1094    2.0990 C   0  0  0  0  0  0  0  0  0  0  0  0
   -1.6915    0.1989    3.1880 N   0  0  0  0  0  0  0  0  0  0  0  0
   -0.9341   -1.2140    0.1039 C   0  0  0  0  0  0  0  0  0  0  0  0
    0.2089   -0.1930   -0.0140 C   0  0  0  0  0  0  0  0  0  0  0  0
    1.4937   -0.8793   -0.5484 C   0  0  0  0  0  0  0  0  0  0  0  0
   -0.5497   -2.4161    0.9609 C   0  0  0  0  0  0  0  0  0  0  0  0
    3.5637   -0.2610    1.4237 C   0  0  0  0  0  0  0  0  0  0  0  0
    2.8114    1.9638   -1.8380 H   0  0  0  0  0  0  0  0  0  0  0  0
    2.3234    0.5795   -2.8620 H   0  0  0  0  0  0  0  0  0  0  0  0
    0.4407    2.3103   -2.4413 H   0  0  0  0  0  0  0  0  0  0  0  0
   -4.0801    2.0849   -0.4334 H   0  0  0  0  0  0  0  0  0  0  0  0
   -4.4800    0.7951    0.6072 H   0  0  0  0  0  0  0  0  0  0  0  0
   -1.2147   -1.5634   -0.9236 H   0  0  0  0  0  0  0  0  0  0  0  0
    0.4343    0.2444    0.9935 H   0  0  0  0  0  0  0  0  0  0  0  0
    1.8647   -1.6427    0.1659 H   0  0  0  0  0  0  0  0  0  0  0  0
    1.2696   -1.4177   -1.5000 H   0  0  0  0  0  0  0  0  0  0  0  0
    0.2020   -3.0424    0.4619 H   0  0  0  0  0  0  0  0  0  0  0  0
   -1.4056   -3.0758    1.1592 H   0  0  0  0  0  0  0  0  0  0  0  0
   -0.1364   -2.1211    1.9341 H   0  0  0  0  0  0  0  0  0  0  0  0
    3.8898   -1.2794    1.1770 H   0  0  0  0  0  0  0  0  0  0  0  0
    2.6514   -0.3190    2.0306 H   0  0  0  0  0  0  0  0  0  0  0  0
    4.3482    0.1824    2.0621 H   0  0  0  0  0  0  0  0  0  0  0  0
  1  2  2  0
  2  3  1  0
  3  4  1  0
  4  5  1  0
  5  6  2  0
  6  7  1  0
  7  8  1  0
  8  9  3  0
  7 10  2  0
 10 11  1  0
 10 12  1  0
 12 13  1  0
 13 14  3  0
 12 15  1  0
 15 16  3  0
 12 17  1  0
 17 18  1  0
 18 19  1  0
 17 20  1  0
  2 21  1  0
 19  3  1  0
 18  6  1  0
  4 22  1  0
  4 23  1  0
  5 24  1  0
 11 25  1  0
 11 26  1  0
 17 27  1  0
 18 28  1  0
 19 29  1  0
 19 30  1  0
 20 31  1  0
 20 32  1  0
 20 33  1  0
 21 34  1  0
 21 35  1  0
 21 36  1  0
A    1
-0.568154
A    2
0.578056
A    3
-0.207119
A    4
-0.008709
A    5
-0.175250
A    6
0.026549
A    7
-0.157921
A    8
0.302539
A    9
-0.456987
A   10
0.239350
A   11
-0.601231
A   12
0.013246
A   13
0.268721
A   14
-0.375190
A   15
0.269109
A   16
-0.376339
A   17
0.017228
A   18
-0.067481
A   19
-0.052439
A   20
-0.376728
A   21
-0.476043
A   22
0.104819
A   23
0.078989
A   24
0.117474
A   25
0.351924
A   26
0.345952
A   27
0.094771
A   28
0.077658
A   29
0.083343
A   30
0.091062
A   31
0.137711
A   32
0.127110
A   33
0.124795
A   34
0.150628
A   35
0.144403
A   36
0.154153
M  END
$$$$
