
     RDKit          3D

 36 39  0  0  0  0  0  0  0  0999 V2000
   -3.8480    0.0670    0.2914 C   0  0  0  0  0  0  0  0  0  0  0  0
   -2.4731   -0.3646    0.6713 C   0  0  0  0  0  0  0  0  0  0  0  0
   -2.2988   -1.5560    1.3615 C   0  0  0  0  0  0  0  0  0  0  0  0
   -1.0207   -1.9571    1.7224 C   0  0  0  0  0  0  0  0  0  0  0  0
   -0.4490   -3.0756    2.3885 C   0  0  0  0  0  0  0  0  0  0  0  0
   -0.9668   -4.2480    2.9517 C   0  0  0  0  0  0  0  0  0  0  0  0
   -0.0942   -5.1428    3.5329 C   0  0  0  0  0  0  0  0  0  0  0  0
    1.3012   -4.8933    3.5642 C   0  0  0  0  0  0  0  0  0  0  0  0
    1.8474   -3.7543    3.0203 C   0  0  0  0  0  0  0  0  0  0  0  0
    0.9748   -2.8200    2.4206 C   0  0  0  0  0  0  0  0  0  0  0  0
    1.2976   -1.6202    1.8206 N   0  0  0  0  0  0  0  0  0  0  0  0
    0.1029   -1.0942    1.3936 C   0  0  0  0  0  0  0  0  0  0  0  0
   -0.1166    0.1117    0.7025 C   0  0  0  0  0  0  0  0  0  0  0  0
   -1.3857    0.4329    0.3368 N   0  0  0  0  0  0  0  0  0  0  0  0
   -1.6204    1.6307   -0.5420 C   0  0  0  0  0  0  0  0  0  0  0  0
   -1.6212    1.1473   -1.9995 C   0  0  0  0  0  0  0  0  0  0  0  0
   -0.6119    2.6513   -0.2237 N   0  0  0  0  0  0  0  0  0  0  0  0
    0.7680    2.1882   -0.4735 C   0  0  0  0  0  0  0  0  0  0  0  0
    1.0558    1.0004    0.4486 C   0  0  0  0  0  0  0  0  0  0  0  0
   -4.1070    1.0638    0.6858 H   0  0  0  0  0  0  0  0  0  0  0  0
   -4.0028    0.0847   -0.7991 H   0  0  0  0  0  0  0  0  0  0  0  0
   -4.6156   -0.6180    0.6932 H   0  0  0  0  0  0  0  0  0  0  0  0
   -3.1620   -2.1756    1.6159 H   0  0  0  0  0  0  0  0  0  0  0  0
   -2.0390   -4.4341    2.9233 H   0  0  0  0  0  0  0  0  0  0  0  0
   -0.4676   -6.0612    3.9796 H   0  0  0  0  0  0  0  0  0  0  0  0
    1.9467   -5.6352    4.0362 H   0  0  0  0  0  0  0  0  0  0  0  0
    2.9155   -3.5565    3.0395 H   0  0  0  0  0  0  0  0  0  0  0  0
   -2.6213    2.0850   -0.2711 H   0  0  0  0  0  0  0  0  0  0  0  0
   -2.4331    0.4356   -2.2003 H   0  0  0  0  0  0  0  0  0  0  0  0
   -0.6845    0.6436   -2.2759 H   0  0  0  0  0  0  0  0  0  0  0  0
   -1.7566    1.9886   -2.6911 H   0  0  0  0  0  0  0  0  0  0  0  0
   -0.8121    3.5278   -0.7153 H   0  0  0  0  0  0  0  0  0  0  0  0
    0.9491    1.9163   -1.5366 H   0  0  0  0  0  0  0  0  0  0  0  0
    1.4620    3.0309   -0.2466 H   0  0  0  0  0  0  0  0  0  0  0  0
    1.4283    1.3667    1.4393 H   0  0  0  0  0  0  0  0  0  0  0  0
    1.9058    0.3960    0.0472 H   0  0  0  0  0  0  0  0  0  0  0  0
  1  2  1  0
  2  3  2  0
  3  4  1  0
  4  5  2  0
  5  6  1  0
  6  7  2  0
  7  8  1  0
  8  9  2  0
  9 10  1  0
 10 11  2  0
 11 12  1  0
 12 13  2  0
 13 14  1  0
 14 15  1  0
 15 16  1  0
 15 17  1  0
 17 18  1  0
 18 19  1  0
 14  2  1  0
 12  4  1  0
 19 13  1  0
 10  5  1  0
  1 20  1  0
  1 21  1  0
  1 22  1  0
  3 23  1  0
  6 24  1  0
  7 25  1  0
  8 26  1  0
  9 27  1  0
 15 28  1  0
 16 29  1  0
 16 30  1  0
 16 31  1  0
 17 32  1  0
 18 33  1  0
 18 34  1  0
 19 35  1  0
 19 36  1  0
A    1
-0.409284
A    2
0.195048
A    3
-0.228878
A    4
0.004574
A    5
-0.062327
A    6
-0.124554
A    7
-0.150189
A    8
-0.090489
A    9
-0.191965
A   10
0.210040
A   11
-0.541361
A   12
0.083205
A   13
0.153230
A   14
-0.053691
A   15
0.279900
A   16
-0.427284
A   17
-0.476682
A   18
0.030865
A   19
-0.205574
A   20
0.128959
A   21
0.124401
A   22
0.144255
A   23
0.130571
A   24
0.102427
A   25
0.095596
A   26
0.095698
A   27
0.112483
A   28
0.061173
A   29
0.126853
A   30
0.131462
A   31
0.133332
A   32
0.269304
A   33
0.041526
A   34
0.079408
A   35
0.114219
A   36
0.113749
M  END
$$$$
