
     RDKit          3D

 39 40  0  0  0  0  0  0  0  0999 V2000
   -1.8038   -2.5092    0.7172 S   0  0  0  0  0  0  0  0  0  0  0  0
   -2.3889   -3.1937   -0.3941 O   0  0  0  0  0  0  0  0  0  0  0  0
   -2.2754   -2.7048    2.0596 O   0  0  0  0  0  0  0  0  0  0  0  0
   -1.9759   -0.7732    0.4025 N   0  0  0  0  0  0  0  0  0  0  0  0
   -1.0608   -0.1159   -0.3808 C   0  0  0  0  0  0  0  0  0  0  0  0
    0.0972   -0.6752   -0.8358 C   0  0  0  0  0  0  0  0  0  0  0  0
    0.9028    0.0878   -1.7809 C   0  0  0  0  0  0  0  0  0  0  0  0
    1.7071   -0.3181   -2.5845 O   0  0  0  0  0  0  0  0  0  0  0  0
    0.6210    1.4209   -1.6767 O   0  0  0  0  0  0  0  0  0  0  0  0
    1.3582    2.3154   -2.5077 C   0  0  0  0  0  0  0  0  0  0  0  0
    2.7401    2.5420   -1.9150 C   0  0  0  0  0  0  0  0  0  0  0  0
    0.5983   -2.0592   -0.4957 C   0  0  0  0  0  0  0  0  0  0  0  0
   -0.0963   -2.6229    0.6907 N   0  0  0  0  0  0  0  0  0  0  0  0
    2.1164   -2.0635   -0.1986 C   0  0  0  0  0  0  0  0  0  0  0  0
    2.6410   -3.4823    0.0120 C   0  0  0  0  0  0  0  0  0  0  0  0
   -3.0891   -0.0011    0.9825 C   0  0  0  0  0  0  0  0  0  0  0  0
   -2.6154    1.2651    1.5872 C   0  0  0  0  0  0  0  0  0  0  0  0
   -2.0249    1.1262    2.8328 O   0  0  0  0  0  0  0  0  0  0  0  0
   -1.6458    2.3913    3.2231 C   0  0  0  0  0  0  0  0  0  0  0  0
   -1.9816    3.3136    2.2683 C   0  0  0  0  0  0  0  0  0  0  0  0
   -2.6125    2.5800    1.2018 C   0  0  0  0  0  0  0  0  0  0  0  0
   -1.3125    0.9317   -0.6424 H   0  0  0  0  0  0  0  0  0  0  0  0
    0.7244    3.2212   -2.4737 H   0  0  0  0  0  0  0  0  0  0  0  0
    1.4017    1.9177   -3.5380 H   0  0  0  0  0  0  0  0  0  0  0  0
    3.3490    1.6285   -1.9790 H   0  0  0  0  0  0  0  0  0  0  0  0
    2.6783    2.8190   -0.8555 H   0  0  0  0  0  0  0  0  0  0  0  0
    3.2773    3.3365   -2.4430 H   0  0  0  0  0  0  0  0  0  0  0  0
    0.3934   -2.7494   -1.3666 H   0  0  0  0  0  0  0  0  0  0  0  0
    0.3760   -2.4152    1.5703 H   0  0  0  0  0  0  0  0  0  0  0  0
    2.3411   -1.4258    0.6748 H   0  0  0  0  0  0  0  0  0  0  0  0
    2.6611   -1.6041   -1.0514 H   0  0  0  0  0  0  0  0  0  0  0  0
    3.7133   -3.4779    0.2342 H   0  0  0  0  0  0  0  0  0  0  0  0
    2.1311   -3.9925    0.8376 H   0  0  0  0  0  0  0  0  0  0  0  0
    2.4939   -4.0972   -0.8849 H   0  0  0  0  0  0  0  0  0  0  0  0
   -3.6043   -0.6244    1.7661 H   0  0  0  0  0  0  0  0  0  0  0  0
   -3.8528    0.2103    0.1898 H   0  0  0  0  0  0  0  0  0  0  0  0
   -1.1707    2.4161    4.1763 H   0  0  0  0  0  0  0  0  0  0  0  0
   -1.8196    4.3709    2.2782 H   0  0  0  0  0  0  0  0  0  0  0  0
   -2.9919    3.0113    0.2995 H   0  0  0  0  0  0  0  0  0  0  0  0
  1  2  2  0
  1  3  2  0
  1  4  1  0
  4  5  1  0
  5  6  2  0
  6  7  1  0
  7  8  2  0
  7  9  1  0
  9 10  1  0
 10 11  1  0
  6 12  1  0
 12 13  1  0
 12 14  1  0
 14 15  1  0
  4 16  1  0
 16 17  1  0
 17 18  1  0
 18 19  1  0
 19 20  2  0
 20 21  1  0
 13  1  1  0
 17 21  2  0
  5 22  1  0
 10 23  1  0
 10 24  1  0
 11 25  1  0
 11 26  1  0
 11 27  1  0
 12 28  1  0
 13 29  1  0
 14 30  1  0
 14 31  1  0
 15 32  1  0
 15 33  1  0
 15 34  1  0
 16 35  1  0
 16 36  1  0
 19 37  1  0
 20 38  1  0
 21 39  1  0
A    1
1.238032
A    2
-0.535175
A    3
-0.550119
A    4
-0.241843
A    5
0.060732
A    6
-0.276666
A    7
0.581669
A    8
-0.537013
A    9
-0.313600
A   10
0.126393
A   11
-0.370506
A   12
0.191508
A   13
-0.550998
A   14
-0.136651
A   15
-0.319380
A   16
-0.081180
A   17
0.184429
A   18
-0.152843
A   19
0.027653
A   20
-0.201512
A   21
-0.240816
A   22
0.109237
A   23
0.063844
A   24
0.059029
A   25
0.114665
A   26
0.112464
A   27
0.116341
A   28
0.061445
A   29
0.323814
A   30
0.080449
A   31
0.100520
A   32
0.106169
A   33
0.098222
A   34
0.106518
A   35
0.119740
A   36
0.108013
A   37
0.117656
A   38
0.144093
A   39
0.155665
M  END
$$$$
