
     RDKit          3D

 37 39  0  0  0  0  0  0  0  0999 V2000
   -0.5099   -1.6394   -1.8896 S   0  0  0  0  0  0  0  0  0  0  0  0
   -1.7585   -0.8163   -1.2498 C   0  0  0  0  0  0  0  0  0  0  0  0
   -2.7823   -0.2778   -2.0035 N   0  0  0  0  0  0  0  0  0  0  0  0
   -3.7245    0.3892   -1.1847 C   0  0  0  0  0  0  0  0  0  0  0  0
   -3.3147    0.2906    0.1694 C   0  0  0  0  0  0  0  0  0  0  0  0
   -4.0793    0.8580    1.1652 C   0  0  0  0  0  0  0  0  0  0  0  0
   -5.2522    1.5345    0.7992 C   0  0  0  0  0  0  0  0  0  0  0  0
   -5.6422    1.6290   -0.5341 C   0  0  0  0  0  0  0  0  0  0  0  0
   -4.8812    1.0527   -1.5585 C   0  0  0  0  0  0  0  0  0  0  0  0
   -2.0355   -0.5023    0.2283 C   0  0  0  0  0  0  0  0  0  0  0  0
   -0.8911    0.2712    0.8828 C   0  0  0  0  0  0  0  0  0  0  0  0
    0.0700   -0.7022    1.5370 C   0  0  0  0  0  0  0  0  0  0  0  0
   -0.3350   -1.5993    2.2542 O   0  0  0  0  0  0  0  0  0  0  0  0
    1.4303   -0.5304    1.4116 N   0  0  0  0  0  0  0  0  0  0  0  0
    2.0745    0.3992    0.4759 C   0  0  0  0  0  0  0  0  0  0  0  0
    3.4514   -0.1033    0.1262 C   0  0  0  0  0  0  0  0  0  0  0  0
    3.5896   -1.2748   -0.6203 C   0  0  0  0  0  0  0  0  0  0  0  0
    4.8591   -1.7433   -0.9485 C   0  0  0  0  0  0  0  0  0  0  0  0
    5.9907   -1.0420   -0.5336 C   0  0  0  0  0  0  0  0  0  0  0  0
    5.8514    0.1277    0.2113 C   0  0  0  0  0  0  0  0  0  0  0  0
    4.5821    0.5976    0.5440 C   0  0  0  0  0  0  0  0  0  0  0  0
   -2.8682   -0.3480   -3.0019 H   0  0  0  0  0  0  0  0  0  0  0  0
   -3.7885    0.7814    2.2121 H   0  0  0  0  0  0  0  0  0  0  0  0
   -5.8672    1.9894    1.5737 H   0  0  0  0  0  0  0  0  0  0  0  0
   -6.5599    2.1589   -0.7910 H   0  0  0  0  0  0  0  0  0  0  0  0
   -5.1934    1.1263   -2.5947 H   0  0  0  0  0  0  0  0  0  0  0  0
   -2.2111   -1.4675    0.7912 H   0  0  0  0  0  0  0  0  0  0  0  0
   -0.4085    0.9553    0.1614 H   0  0  0  0  0  0  0  0  0  0  0  0
   -1.2914    0.9328    1.6854 H   0  0  0  0  0  0  0  0  0  0  0  0
    2.0369   -1.2128    1.8556 H   0  0  0  0  0  0  0  0  0  0  0  0
    1.4724    0.5055   -0.4604 H   0  0  0  0  0  0  0  0  0  0  0  0
    2.1192    1.4108    0.9463 H   0  0  0  0  0  0  0  0  0  0  0  0
    2.7030   -1.8225   -0.9449 H   0  0  0  0  0  0  0  0  0  0  0  0
    4.9673   -2.6573   -1.5306 H   0  0  0  0  0  0  0  0  0  0  0  0
    6.9826   -1.4083   -0.7911 H   0  0  0  0  0  0  0  0  0  0  0  0
    6.7345    0.6744    0.5356 H   0  0  0  0  0  0  0  0  0  0  0  0
    4.4795    1.5084    1.1304 H   0  0  0  0  0  0  0  0  0  0  0  0
  1  2  2  0
  2  3  1  0
  3  4  1  0
  4  5  2  0
  5  6  1  0
  6  7  2  0
  7  8  1  0
  8  9  2  0
  5 10  1  0
 10 11  1  0
 11 12  1  0
 12 13  2  0
 12 14  1  0
 14 15  1  0
 15 16  1  0
 16 17  2  0
 17 18  1  0
 18 19  2  0
 19 20  1  0
 20 21  2  0
 10  2  1  0
  9  4  1  0
 21 16  1  0
  3 22  1  0
  6 23  1  0
  7 24  1  0
  8 25  1  0
  9 26  1  0
 10 27  1  0
 11 28  1  0
 11 29  1  0
 14 30  1  0
 15 31  1  0
 15 32  1  0
 17 33  1  0
 18 34  1  0
 19 35  1  0
 20 36  1  0
 21 37  1  0
A    1
-0.460824
A    2
0.289218
A    3
-0.308980
A    4
0.179722
A    5
-0.009832
A    6
-0.126113
A    7
-0.122677
A    8
-0.089453
A    9
-0.197088
A   10
-0.049858
A   11
-0.264001
A   12
0.571333
A   13
-0.592318
A   14
-0.414881
A   15
-0.010110
A   16
0.073300
A   17
-0.138606
A   18
-0.092077
A   19
-0.104069
A   20
-0.093552
A   21
-0.153166
A   22
0.325284
A   23
0.119322
A   24
0.106924
A   25
0.108810
A   26
0.125942
A   27
0.122261
A   28
0.111066
A   29
0.131047
A   30
0.296795
A   31
0.072506
A   32
0.068695
A   33
0.104457
A   34
0.105446
A   35
0.104130
A   36
0.103810
A   37
0.107536
M  END
$$$$
