
     RDKit          3D

 37 37  0  0  0  0  0  0  0  0999 V2000
    4.0144   -2.0612    1.0058 O   0  0  0  0  0  0  0  0  0  0  0  0
    3.7769   -0.9613    0.5754 C   0  0  0  0  0  0  0  0  0  0  0  0
    4.8087   -0.0380    0.2822 N   0  0  0  0  0  0  0  0  0  0  0  0
    6.1833   -0.3208    0.4576 C   0  0  0  0  0  0  0  0  0  0  0  0
    6.5764   -1.3811    0.8610 O   0  0  0  0  0  0  0  0  0  0  0  0
    7.0885    0.8256    0.0903 C   0  0  0  0  0  0  0  0  0  0  0  0
    2.4114   -0.4538    0.3099 C   0  0  0  0  0  0  0  0  0  0  0  0
    1.3533   -1.1864    0.6821 C   0  0  0  0  0  0  0  0  0  0  0  0
   -0.0269   -0.7586    0.4389 C   0  0  0  0  0  0  0  0  0  0  0  0
   -0.4237    0.5420    0.7444 C   0  0  0  0  0  0  0  0  0  0  0  0
   -1.7428    0.9372    0.4859 C   0  0  0  0  0  0  0  0  0  0  0  0
   -1.9855    2.2311    0.8090 O   0  0  0  0  0  0  0  0  0  0  0  0
   -3.3301    2.5853    1.1196 C   0  0  0  0  0  0  0  0  0  0  0  0
   -2.6533    0.0487   -0.1028 C   0  0  0  0  0  0  0  0  0  0  0  0
   -3.9360    0.4513   -0.3878 O   0  0  0  0  0  0  0  0  0  0  0  0
   -4.0352    0.9725   -1.7170 C   0  0  0  0  0  0  0  0  0  0  0  0
   -2.2523   -1.2740   -0.3394 C   0  0  0  0  0  0  0  0  0  0  0  0
   -3.0191   -2.2588   -0.8672 O   0  0  0  0  0  0  0  0  0  0  0  0
   -4.4267   -2.1711   -0.6657 C   0  0  0  0  0  0  0  0  0  0  0  0
   -0.9370   -1.6797   -0.0777 C   0  0  0  0  0  0  0  0  0  0  0  0
    4.5494    0.8771   -0.0687 H   0  0  0  0  0  0  0  0  0  0  0  0
    6.8943    1.7177    0.6992 H   0  0  0  0  0  0  0  0  0  0  0  0
    6.9969    1.1011   -0.9680 H   0  0  0  0  0  0  0  0  0  0  0  0
    8.1412    0.5422    0.2595 H   0  0  0  0  0  0  0  0  0  0  0  0
    2.3108    0.5021   -0.1962 H   0  0  0  0  0  0  0  0  0  0  0  0
    1.4725   -2.1592    1.1808 H   0  0  0  0  0  0  0  0  0  0  0  0
    0.2672    1.2532    1.1907 H   0  0  0  0  0  0  0  0  0  0  0  0
   -3.1973    3.4838    1.7365 H   0  0  0  0  0  0  0  0  0  0  0  0
   -3.8456    1.8004    1.6814 H   0  0  0  0  0  0  0  0  0  0  0  0
   -3.8701    2.8186    0.1974 H   0  0  0  0  0  0  0  0  0  0  0  0
   -3.3954    1.8524   -1.8368 H   0  0  0  0  0  0  0  0  0  0  0  0
   -5.0943    1.2421   -1.7935 H   0  0  0  0  0  0  0  0  0  0  0  0
   -3.7691    0.2079   -2.4538 H   0  0  0  0  0  0  0  0  0  0  0  0
   -4.8706   -1.5386   -1.4397 H   0  0  0  0  0  0  0  0  0  0  0  0
   -4.6794   -1.7974    0.3311 H   0  0  0  0  0  0  0  0  0  0  0  0
   -4.7425   -3.2163   -0.7825 H   0  0  0  0  0  0  0  0  0  0  0  0
   -0.6452   -2.7073   -0.2868 H   0  0  0  0  0  0  0  0  0  0  0  0
  1  2  2  0
  2  3  1  0
  3  4  1  0
  4  5  2  0
  4  6  1  0
  2  7  1  0
  7  8  2  0
  8  9  1  0
  9 10  2  0
 10 11  1  0
 11 12  1  0
 12 13  1  0
 11 14  2  0
 14 15  1  0
 15 16  1  0
 14 17  1  0
 17 18  1  0
 18 19  1  0
 17 20  2  0
 20  9  1  0
  3 21  1  0
  6 22  1  0
  6 23  1  0
  6 24  1  0
  7 25  1  0
  8 26  1  0
 10 27  1  0
 13 28  1  0
 13 29  1  0
 13 30  1  0
 16 31  1  0
 16 32  1  0
 16 33  1  0
 19 34  1  0
 19 35  1  0
 19 36  1  0
 20 37  1  0
A    1
-0.517071
A    2
0.594303
A    3
-0.508385
A    4
0.666262
A    5
-0.520481
A    6
-0.498472
A    7
-0.288483
A    8
-0.015669
A    9
0.117832
A   10
-0.285721
A   11
0.180276
A   12
-0.197886
A   13
-0.127490
A   14
0.008457
A   15
-0.215678
A   16
-0.137890
A   17
0.181810
A   18
-0.196954
A   19
-0.129428
A   20
-0.288103
A   21
0.320317
A   22
0.151479
A   23
0.152030
A   24
0.152704
A   25
0.132651
A   26
0.119536
A   27
0.128989
A   28
0.098834
A   29
0.101452
A   30
0.089601
A   31
0.096194
A   32
0.106896
A   33
0.097012
A   34
0.089682
A   35
0.102022
A   36
0.099578
A   37
0.139793
M  END
$$$$
