
     RDKit          3D

 34 35  0  0  0  0  0  0  0  0999 V2000
    3.4330    1.1435    3.1788 C   0  0  0  0  0  0  0  0  0  0  0  0
    2.4537    1.2701    2.1290 O   0  0  0  0  0  0  0  0  0  0  0  0
    1.2097    2.2824    2.2742 P   0  0  0  0  0  0  0  0  0  0  0  0
    1.5064    3.6500    2.7213 O   0  0  0  0  0  0  0  0  0  0  0  0
    0.3387    1.4273    3.3305 O   0  0  0  0  0  0  0  0  0  0  0  0
   -1.0294    1.7854    3.6080 C   0  0  0  0  0  0  0  0  0  0  0  0
    0.5292    2.0355    0.6305 C   0  0  0  0  0  0  0  0  0  0  0  0
    0.4640    0.8136    0.0462 C   0  0  0  0  0  0  0  0  0  0  0  0
   -0.0207    0.5649   -1.2784 C   0  0  0  0  0  0  0  0  0  0  0  0
   -0.0151    1.3986   -2.4023 C   0  0  0  0  0  0  0  0  0  0  0  0
   -0.5839    0.7452   -3.4765 N   0  0  0  0  0  0  0  0  0  0  0  0
   -0.9751   -0.5367   -3.0663 C   0  0  0  0  0  0  0  0  0  0  0  0
   -1.6091   -1.5595   -3.7802 C   0  0  0  0  0  0  0  0  0  0  0  0
   -1.8758   -2.7325   -3.0971 C   0  0  0  0  0  0  0  0  0  0  0  0
   -1.5236   -2.8925   -1.7405 C   0  0  0  0  0  0  0  0  0  0  0  0
   -0.9002   -1.8818   -1.0319 C   0  0  0  0  0  0  0  0  0  0  0  0
   -0.6170   -0.6819   -1.6906 C   0  0  0  0  0  0  0  0  0  0  0  0
    0.0333    3.2720   -0.0152 C   0  0  0  0  0  0  0  0  0  0  0  0
   -1.0625    3.7697    0.0738 O   0  0  0  0  0  0  0  0  0  0  0  0
    0.9833    3.8350   -0.7985 O   0  0  0  0  0  0  0  0  0  0  0  0
    3.0391    0.6497    4.0769 H   0  0  0  0  0  0  0  0  0  0  0  0
    3.9331    2.0840    3.4490 H   0  0  0  0  0  0  0  0  0  0  0  0
    4.1470    0.4755    2.6610 H   0  0  0  0  0  0  0  0  0  0  0  0
   -1.6962    1.7070    2.7378 H   0  0  0  0  0  0  0  0  0  0  0  0
   -1.2755    0.9917    4.3363 H   0  0  0  0  0  0  0  0  0  0  0  0
   -1.1399    2.7676    4.0886 H   0  0  0  0  0  0  0  0  0  0  0  0
    0.7672   -0.1149    0.5766 H   0  0  0  0  0  0  0  0  0  0  0  0
    0.3828    2.4010   -2.5060 H   0  0  0  0  0  0  0  0  0  0  0  0
   -0.6959    1.1126   -4.4018 H   0  0  0  0  0  0  0  0  0  0  0  0
   -1.8767   -1.4352   -4.8260 H   0  0  0  0  0  0  0  0  0  0  0  0
   -2.3691   -3.5587   -3.6105 H   0  0  0  0  0  0  0  0  0  0  0  0
   -1.7494   -3.8398   -1.2495 H   0  0  0  0  0  0  0  0  0  0  0  0
   -0.6323   -2.0072    0.0166 H   0  0  0  0  0  0  0  0  0  0  0  0
    0.7230    4.7181   -1.1808 H   0  0  0  0  0  0  0  0  0  0  0  0
  1  2  1  0
  2  3  1  0
  3  4  2  0
  3  5  1  0
  5  6  1  0
  3  7  1  0
  7  8  2  0
  8  9  1  0
  9 10  2  0
 10 11  1  0
 11 12  1  0
 12 13  2  0
 13 14  1  0
 14 15  2  0
 15 16  1  0
 16 17  2  0
  7 18  1  0
 18 19  2  0
 18 20  1  0
 17  9  1  0
 17 12  1  0
  1 21  1  0
  1 22  1  0
  1 23  1  0
  6 24  1  0
  6 25  1  0
  6 26  1  0
  8 27  1  0
 10 28  1  0
 11 29  1  0
 13 30  1  0
 14 31  1  0
 15 32  1  0
 16 33  1  0
 20 34  1  0
A    1
-0.092000
A    2
-0.403244
A    3
1.225714
A    4
-0.780675
A    5
-0.404170
A    6
-0.094890
A    7
-0.432378
A    8
0.028273
A    9
-0.077423
A   10
0.006889
A   11
-0.256967
A   12
0.162502
A   13
-0.195128
A   14
-0.109129
A   15
-0.128628
A   16
-0.136652
A   17
-0.033703
A   18
0.712878
A   19
-0.565992
A   20
-0.536759
A   21
0.104062
A   22
0.105651
A   23
0.108132
A   24
0.100108
A   25
0.109390
A   26
0.104604
A   27
0.121204
A   28
0.124033
A   29
0.334464
A   30
0.132690
A   31
0.107813
A   32
0.108838
A   33
0.113684
A   34
0.436809
M  END
$$$$
