
     RDKit          3D

 25 27  0  0  0  0  0  0  0  0999 V2000
    4.9527   -0.3273   -0.6777 S   0  0  0  0  0  0  0  0  0  0  0  0
    5.0593   -1.6398   -1.2653 O   0  0  0  0  0  0  0  0  0  0  0  0
    5.4848    0.8362   -1.3252 O   0  0  0  0  0  0  0  0  0  0  0  0
    5.6510   -0.4422    0.8913 N   0  0  0  0  0  0  0  0  0  0  0  0
    3.2319   -0.0775   -0.3469 C   0  0  0  0  0  0  0  0  0  0  0  0
    1.9030   -1.0672   -0.9028 S   0  0  0  0  0  0  0  0  0  0  0  0
    0.8288    0.0769   -0.0555 C   0  0  0  0  0  0  0  0  0  0  0  0
    1.5235    1.0586    0.5512 N   0  0  0  0  0  0  0  0  0  0  0  0
    2.8351    0.9583    0.3840 N   0  0  0  0  0  0  0  0  0  0  0  0
   -0.5447   -0.0501    0.0046 N   0  0  0  0  0  0  0  0  0  0  0  0
   -1.3560   -0.4603   -1.1175 C   0  0  0  0  0  0  0  0  0  0  0  0
   -0.8985   -0.8839   -2.1319 O   0  0  0  0  0  0  0  0  0  0  0  0
   -2.7694   -0.2385   -0.6573 C   0  0  0  0  0  0  0  0  0  0  0  0
   -3.8716   -0.4807   -1.3530 N   0  0  0  0  0  0  0  0  0  0  0  0
   -5.0464   -0.1926   -0.7312 C   0  0  0  0  0  0  0  0  0  0  0  0
   -5.1211    0.3275    0.5645 C   0  0  0  0  0  0  0  0  0  0  0  0
   -3.9445    0.5759    1.2896 C   0  0  0  0  0  0  0  0  0  0  0  0
   -2.7522    0.2849    0.6599 C   0  0  0  0  0  0  0  0  0  0  0  0
   -1.3493    0.4168    1.1237 C   0  0  0  0  0  0  0  0  0  0  0  0
   -0.8972    0.7583    2.1691 O   0  0  0  0  0  0  0  0  0  0  0  0
    6.1789   -1.2679    1.1107 H   0  0  0  0  0  0  0  0  0  0  0  0
    6.0600    0.3847    1.2912 H   0  0  0  0  0  0  0  0  0  0  0  0
   -5.9461   -0.3991   -1.3272 H   0  0  0  0  0  0  0  0  0  0  0  0
   -6.0916    0.5406    1.0114 H   0  0  0  0  0  0  0  0  0  0  0  0
   -3.9741    0.9818    2.3035 H   0  0  0  0  0  0  0  0  0  0  0  0
  1  2  2  0
  1  3  2  0
  1  4  1  0
  1  5  1  0
  5  6  1  0
  6  7  1  0
  7  8  2  0
  8  9  1  0
  7 10  1  0
 10 11  1  0
 11 12  2  0
 11 13  1  0
 13 14  2  0
 14 15  1  0
 15 16  2  0
 16 17  1  0
 17 18  2  0
 18 19  1  0
 19 20  2  0
  5  9  2  0
 19 10  1  0
 18 13  1  0
  4 21  1  0
  4 22  1  0
 15 23  1  0
 16 24  1  0
 17 25  1  0
A    1
1.231404
A    2
-0.576109
A    3
-0.553910
A    4
-0.805166
A    5
-0.076636
A    6
0.132698
A    7
0.264882
A    8
-0.219277
A    9
-0.138826
A   10
-0.277625
A   11
0.492271
A   12
-0.413922
A   13
0.101065
A   14
-0.291808
A   15
0.115727
A   16
-0.110119
A   17
-0.006515
A   18
-0.105825
A   19
0.533447
A   20
-0.420577
A   21
0.378938
A   22
0.375936
A   23
0.104484
A   24
0.132460
A   25
0.133000
M  END
$$$$
