
     RDKit          3D

 37 39  0  0  0  0  0  0  0  0999 V2000
    3.4398   -0.1754    0.1361 O   0  0  0  0  0  0  0  0  0  0  0  0
    3.3278   -0.4052   -1.0402 C   0  0  0  0  0  0  0  0  0  0  0  0
    4.3004   -1.0300   -1.7350 O   0  0  0  0  0  0  0  0  0  0  0  0
    2.1510   -0.0941   -1.9549 C   0  0  0  0  0  0  0  0  0  0  0  0
    1.0258   -1.1050   -1.7209 C   0  0  0  0  0  0  0  0  0  0  0  0
   -0.0506   -0.3177   -0.9409 C   0  0  0  0  0  0  0  0  0  0  0  0
   -1.1193   -0.2011   -1.8492 O   0  0  0  0  0  0  0  0  0  0  0  0
   -0.5035   -1.0001    0.3210 C   0  0  0  0  0  0  0  0  0  0  0  0
    0.3925   -1.1729    1.3803 C   0  0  0  0  0  0  0  0  0  0  0  0
   -0.0136   -1.7987    2.5545 C   0  0  0  0  0  0  0  0  0  0  0  0
   -1.3306   -2.2493    2.6322 C   0  0  0  0  0  0  0  0  0  0  0  0
   -1.7300   -2.8450    3.7471 F   0  0  0  0  0  0  0  0  0  0  0  0
   -2.2439   -2.1049    1.5908 C   0  0  0  0  0  0  0  0  0  0  0  0
   -1.8121   -1.4742    0.4259 C   0  0  0  0  0  0  0  0  0  0  0  0
    0.6068    1.0762   -0.6721 C   0  0  0  0  0  0  0  0  0  0  0  0
   -0.3244    2.2200   -0.9063 C   0  0  0  0  0  0  0  0  0  0  0  0
   -0.3734    2.8516   -2.1506 C   0  0  0  0  0  0  0  0  0  0  0  0
   -1.2403    3.9216   -2.3592 C   0  0  0  0  0  0  0  0  0  0  0  0
   -2.0497    4.3222   -1.2986 C   0  0  0  0  0  0  0  0  0  0  0  0
   -2.8785    5.3400   -1.4870 F   0  0  0  0  0  0  0  0  0  0  0  0
   -2.0283    3.7053   -0.0484 C   0  0  0  0  0  0  0  0  0  0  0  0
   -1.1477    2.6448    0.1405 C   0  0  0  0  0  0  0  0  0  0  0  0
    1.6788    1.1928   -1.6136 O   0  0  0  0  0  0  0  0  0  0  0  0
    5.1034   -1.2743   -1.1970 H   0  0  0  0  0  0  0  0  0  0  0  0
    2.4697   -0.0011   -3.0200 H   0  0  0  0  0  0  0  0  0  0  0  0
    0.6049   -1.4722   -2.6816 H   0  0  0  0  0  0  0  0  0  0  0  0
    1.3533   -2.0118   -1.1834 H   0  0  0  0  0  0  0  0  0  0  0  0
   -1.7915    0.4513   -1.5460 H   0  0  0  0  0  0  0  0  0  0  0  0
    1.4252   -0.8181    1.2948 H   0  0  0  0  0  0  0  0  0  0  0  0
    0.6823   -1.9295    3.3834 H   0  0  0  0  0  0  0  0  0  0  0  0
   -3.2663   -2.4726    1.6760 H   0  0  0  0  0  0  0  0  0  0  0  0
   -2.5105   -1.3622   -0.4084 H   0  0  0  0  0  0  0  0  0  0  0  0
    1.0790    1.1215    0.3394 H   0  0  0  0  0  0  0  0  0  0  0  0
    0.2720    2.5046   -2.9630 H   0  0  0  0  0  0  0  0  0  0  0  0
   -1.2773    4.4247   -3.3254 H   0  0  0  0  0  0  0  0  0  0  0  0
   -2.6755    4.0425    0.7617 H   0  0  0  0  0  0  0  0  0  0  0  0
   -1.1031    2.1483    1.1128 H   0  0  0  0  0  0  0  0  0  0  0  0
  1  2  2  0
  2  3  1  0
  2  4  1  0
  4  5  1  0
  5  6  1  0
  6  7  1  0
  6  8  1  0
  8  9  2  0
  9 10  1  0
 10 11  2  0
 11 12  1  0
 11 13  1  0
 13 14  2  0
  6 15  1  0
 15 16  1  0
 16 17  2  0
 17 18  1  0
 18 19  2  0
 19 20  1  0
 19 21  1  0
 21 22  2  0
 15 23  1  0
 23  4  1  0
 14  8  1  0
 22 16  1  0
  3 24  1  0
  4 25  1  0
  5 26  1  0
  5 27  1  0
  7 28  1  0
  9 29  1  0
 10 30  1  0
 13 31  1  0
 14 32  1  0
 15 33  1  0
 17 34  1  0
 18 35  1  0
 21 36  1  0
 22 37  1  0
A    1
-0.536142
A    2
0.629558
A    3
-0.546591
A    4
0.080002
A    5
-0.252698
A    6
0.278396
A    7
-0.551411
A    8
-0.025988
A    9
-0.103175
A   10
-0.226725
A   11
0.297748
A   12
-0.170627
A   13
-0.233408
A   14
-0.097823
A   15
0.066649
A   16
0.018384
A   17
-0.090090
A   18
-0.230777
A   19
0.299794
A   20
-0.169362
A   21
-0.227439
A   22
-0.113635
A   23
-0.290598
A   24
0.422930
A   25
0.087615
A   26
0.130270
A   27
0.111233
A   28
0.361683
A   29
0.111258
A   30
0.143255
A   31
0.141390
A   32
0.110549
A   33
0.056670
A   34
0.117947
A   35
0.143293
A   36
0.141887
A   37
0.115979
M  END
$$$$
