
     RDKit          3D

 30 31  0  0  0  0  0  0  0  0999 V2000
   -5.9411   -0.2483   -0.2761 Cl  0  0  0  0  0  0  0  0  0  0  0  0
   -4.2446   -0.0850   -0.1694 C   0  0  0  0  0  0  0  0  0  0  0  0
   -3.7132    0.7103    0.8379 C   0  0  0  0  0  0  0  0  0  0  0  0
   -2.3279    0.8393    0.9193 C   0  0  0  0  0  0  0  0  0  0  0  0
   -1.5082    0.1741    0.0061 C   0  0  0  0  0  0  0  0  0  0  0  0
   -2.0683   -0.6186   -0.9988 C   0  0  0  0  0  0  0  0  0  0  0  0
   -3.4511   -0.7532   -1.0943 C   0  0  0  0  0  0  0  0  0  0  0  0
   -0.0084    0.3135    0.1237 C   0  0  0  0  0  0  0  0  0  0  0  0
    0.5002    0.9634   -1.0874 N   0  0  0  0  0  0  0  0  0  0  0  0
    1.8394    1.0895   -1.3589 C   0  0  0  0  0  0  0  0  0  0  0  0
    2.1075    1.8390   -2.5576 C   0  0  0  0  0  0  0  0  0  0  0  0
    2.3153    2.4355   -3.5257 N   0  0  0  0  0  0  0  0  0  0  0  0
    2.9038    0.6340   -0.6086 C   0  0  0  0  0  0  0  0  0  0  0  0
    2.9355   -0.1440    0.5433 N   0  0  0  0  0  0  0  0  0  0  0  0
    1.9855   -0.8990    0.9760 C   0  0  0  0  0  0  0  0  0  0  0  0
    0.6402   -1.0773    0.3384 C   0  0  0  0  0  0  0  0  0  0  0  0
    2.2307   -1.6630    2.2383 C   0  0  0  0  0  0  0  0  0  0  0  0
    4.2255    1.0148   -0.9988 C   0  0  0  0  0  0  0  0  0  0  0  0
    5.3034    1.3099   -1.2992 N   0  0  0  0  0  0  0  0  0  0  0  0
   -4.3579    1.2270    1.5501 H   0  0  0  0  0  0  0  0  0  0  0  0
   -1.8914    1.4648    1.6997 H   0  0  0  0  0  0  0  0  0  0  0  0
   -1.4262   -1.1409   -1.7092 H   0  0  0  0  0  0  0  0  0  0  0  0
   -3.8934   -1.3705   -1.8774 H   0  0  0  0  0  0  0  0  0  0  0  0
    0.2571    0.9738    1.0017 H   0  0  0  0  0  0  0  0  0  0  0  0
   -0.1757    1.1911   -1.8072 H   0  0  0  0  0  0  0  0  0  0  0  0
   -0.0259   -1.7126    0.9558 H   0  0  0  0  0  0  0  0  0  0  0  0
    0.7395   -1.6157   -0.6272 H   0  0  0  0  0  0  0  0  0  0  0  0
    2.1407   -2.7459    2.0736 H   0  0  0  0  0  0  0  0  0  0  0  0
    1.5202   -1.3761    3.0257 H   0  0  0  0  0  0  0  0  0  0  0  0
    3.2453   -1.4818    2.6368 H   0  0  0  0  0  0  0  0  0  0  0  0
  1  2  1  0
  2  3  2  0
  3  4  1  0
  4  5  2  0
  5  6  1  0
  6  7  2  0
  5  8  1  0
  8  9  1  0
  9 10  1  0
 10 11  1  0
 11 12  3  0
 10 13  2  0
 13 14  1  0
 14 15  2  0
 15 16  1  0
 15 17  1  0
 13 18  1  0
 18 19  3  0
  7  2  1  0
 16  8  1  0
  3 20  1  0
  4 21  1  0
  6 22  1  0
  7 23  1  0
  8 24  1  0
  9 25  1  0
 16 26  1  0
 16 27  1  0
 17 28  1  0
 17 29  1  0
 17 30  1  0
A    1
-0.130630
A    2
0.156020
A    3
-0.147858
A    4
-0.115816
A    5
0.024991
A    6
-0.116516
A    7
-0.149936
A    8
0.149565
A    9
-0.349765
A   10
0.139103
A   11
0.240726
A   12
-0.376571
A   13
0.054624
A   14
-0.394669
A   15
0.371440
A   16
-0.286464
A   17
-0.423737
A   18
0.244762
A   19
-0.432763
A   20
0.133751
A   21
0.117843
A   22
0.119569
A   23
0.131661
A   24
0.067752
A   25
0.311549
A   26
0.119147
A   27
0.131203
A   28
0.140719
A   29
0.137339
A   30
0.132958
M  END
$$$$
