
     RDKit          3D

 27 27  0  0  0  0  0  0  0  0999 V2000
   -4.0145    0.5597   -1.1511 S   0  0  0  0  0  0  0  0  0  0  0  0
   -4.7231    0.6887   -2.4243 O   0  0  0  0  0  0  0  0  0  0  0  0
   -4.1766   -0.7012   -0.4295 O   0  0  0  0  0  0  0  0  0  0  0  0
   -4.3640    2.0162   -0.1436 N   0  0  0  0  0  0  0  0  0  0  0  0
   -3.3956    2.2427    0.6947 O   0  0  0  0  0  0  0  0  0  0  0  0
   -2.2979    0.5796   -1.6161 N   0  0  0  0  0  0  0  0  0  0  0  0
   -1.3101    0.6660   -0.5621 C   0  0  0  0  0  0  0  0  0  0  0  0
   -0.1033    0.9694   -1.2929 O   0  0  0  0  0  0  0  0  0  0  0  0
    1.0523    0.9492   -0.4954 C   0  0  0  0  0  0  0  0  0  0  0  0
    1.3148   -0.4943   -0.0243 C   0  0  1  0  0  0  0  0  0  0  0  0
    2.1972   -0.4229    1.1166 O   0  0  0  0  0  0  0  0  0  0  0  0
    3.5240   -0.4077    0.8983 C   0  0  0  0  0  0  0  0  0  0  0  0
    4.0295   -0.4777   -0.1942 O   0  0  0  0  0  0  0  0  0  0  0  0
    4.2446   -0.2999    2.2051 C   0  0  0  0  0  0  0  0  0  0  0  0
    0.0687   -1.1234    0.5075 C   0  0  0  0  0  0  0  0  0  0  0  0
   -1.1312   -0.6079    0.2380 C   0  0  0  0  0  0  0  0  0  0  0  0
   -4.3777    2.8245   -0.7892 H   0  0  0  0  0  0  0  0  0  0  0  0
   -2.0200   -0.0140   -2.3865 H   0  0  0  0  0  0  0  0  0  0  0  0
   -1.5353    1.5414    0.1227 H   0  0  0  0  0  0  0  0  0  0  0  0
    1.8400    1.3171   -1.1749 H   0  0  0  0  0  0  0  0  0  0  0  0
    0.9518    1.6383    0.3618 H   0  0  0  0  0  0  0  0  0  0  0  0
    1.7871   -1.1115   -0.8191 H   0  0  0  0  0  0  0  0  0  0  0  0
    4.9426    0.5489    2.1892 H   0  0  0  0  0  0  0  0  0  0  0  0
    4.8311   -1.2095    2.3948 H   0  0  0  0  0  0  0  0  0  0  0  0
    3.5547   -0.1594    3.0517 H   0  0  0  0  0  0  0  0  0  0  0  0
    0.2142   -2.0114    1.1113 H   0  0  0  0  0  0  0  0  0  0  0  0
   -2.0671   -1.0562    0.5917 H   0  0  0  0  0  0  0  0  0  0  0  0
  1  2  2  0
  1  3  2  0
  1  4  1  0
  4  5  1  0
  1  6  1  0
  6  7  1  0
  7  8  1  0
  8  9  1  0
  9 10  1  0
 10 11  1  0
 11 12  1  0
 12 13  2  0
 12 14  1  0
 10 15  1  0
 15 16  2  0
 16  7  1  0
  4 17  1  0
  6 18  1  0
  7 19  1  0
  9 20  1  0
  9 21  1  0
 10 22  1  6
 14 23  1  0
 14 24  1  0
 14 25  1  0
 15 26  1  0
 16 27  1  0
M  CHG  1   5  -1
A    1
1.190552
A    2
-0.657408
A    3
-0.622659
A    4
-0.298897
A    5
-0.620348
A    6
-0.624770
A    7
0.332874
A    8
-0.318342
A    9
0.001364
A   10
0.171790
A   11
-0.318625
A   12
0.690087
A   13
-0.571816
A   14
-0.500418
A   15
-0.177018
A   16
-0.182066
A   17
0.237736
A   18
0.307994
A   19
0.054336
A   20
0.079393
A   21
0.067761
A   22
0.059530
A   23
0.156332
A   24
0.157125
A   25
0.148307
A   26
0.113124
A   27
0.124061
M  END
$$$$
