
     RDKit          3D

 34 35  0  0  0  0  0  0  0  0999 V2000
    3.8958    1.7807   -1.6899 N   0  0  0  0  0  0  0  0  0  0  0  0
    2.7668    2.4930   -2.3309 C   0  0  0  0  0  0  0  0  0  0  0  0
    1.4421    1.9632   -1.8655 C   0  0  0  0  0  0  0  0  0  0  0  0
    0.7405    2.5625   -0.8712 C   0  0  0  0  0  0  0  0  0  0  0  0
   -0.4599    2.0457   -0.3965 N   0  0  0  0  0  0  0  0  0  0  0  0
   -0.9466    2.6121    0.8947 C   0  0  1  0  0  0  0  0  0  0  0  0
   -2.3994    2.3115    1.2530 C   0  0  0  0  0  0  0  0  0  0  0  0
   -2.3208    1.1405    2.2527 C   0  0  2  0  0  0  0  0  0  0  0  0
   -2.9627    1.4690    3.4662 O   0  0  0  0  0  0  0  0  0  0  0  0
   -0.8233    1.0128    2.6091 C   0  0  1  0  0  0  0  0  0  0  0  0
   -0.2090   -0.3437    2.2127 C   0  0  0  0  0  0  0  0  0  0  0  0
    1.2237   -0.2493    1.8644 N   0  0  0  0  0  0  0  0  0  0  0  0
   -0.1357    2.0432    1.8953 O   0  0  0  0  0  0  0  0  0  0  0  0
   -0.9671    0.8316   -0.9116 C   0  0  0  0  0  0  0  0  0  0  0  0
   -1.9879    0.3182   -0.5007 O   0  0  0  0  0  0  0  0  0  0  0  0
   -0.2514    0.2348   -1.9521 N   0  0  0  0  0  0  0  0  0  0  0  0
    0.9681    0.7319   -2.4693 C   0  0  0  0  0  0  0  0  0  0  0  0
    1.5077    0.0781   -3.3374 O   0  0  0  0  0  0  0  0  0  0  0  0
    3.9370    0.8201   -2.0136 H   0  0  0  0  0  0  0  0  0  0  0  0
    3.7748    1.7523   -0.6860 H   0  0  0  0  0  0  0  0  0  0  0  0
    2.8647    2.3920   -3.4392 H   0  0  0  0  0  0  0  0  0  0  0  0
    2.8711    3.5815   -2.1099 H   0  0  0  0  0  0  0  0  0  0  0  0
    1.0864    3.4972   -0.3929 H   0  0  0  0  0  0  0  0  0  0  0  0
   -0.6958    3.7058    0.9028 H   0  0  0  0  0  0  0  0  0  0  0  0
   -3.0399    2.0821    0.3825 H   0  0  0  0  0  0  0  0  0  0  0  0
   -2.8647    3.1993    1.7296 H   0  0  0  0  0  0  0  0  0  0  0  0
   -2.7715    0.2061    1.8568 H   0  0  0  0  0  0  0  0  0  0  0  0
   -3.9228    1.6201    3.3266 H   0  0  0  0  0  0  0  0  0  0  0  0
   -0.6313    1.2608    3.6776 H   0  0  0  0  0  0  0  0  0  0  0  0
   -0.7518   -0.7941    1.3501 H   0  0  0  0  0  0  0  0  0  0  0  0
   -0.3210   -1.0626    3.0561 H   0  0  0  0  0  0  0  0  0  0  0  0
    1.3281    0.2845    1.0143 H   0  0  0  0  0  0  0  0  0  0  0  0
    1.7442    0.2341    2.5885 H   0  0  0  0  0  0  0  0  0  0  0  0
   -0.6292   -0.6428   -2.3426 H   0  0  0  0  0  0  0  0  0  0  0  0
  1  2  1  0
  2  3  1  0
  3  4  2  0
  4  5  1  0
  5  6  1  0
  6  7  1  0
  7  8  1  0
  8  9  1  0
  8 10  1  0
 10 11  1  0
 11 12  1  0
 10 13  1  0
  5 14  1  0
 14 15  2  0
 14 16  1  0
 16 17  1  0
 17 18  2  0
 17  3  1  0
 13  6  1  0
  1 19  1  0
  1 20  1  0
  2 21  1  0
  2 22  1  0
  4 23  1  0
  6 24  1  6
  7 25  1  0
  7 26  1  0
  8 27  1  6
  9 28  1  0
 10 29  1  1
 11 30  1  0
 11 31  1  0
 12 32  1  0
 12 33  1  0
 16 34  1  0
A    1
-0.679614
A    2
0.055502
A    3
-0.182846
A    4
0.033561
A    5
-0.225368
A    6
0.308600
A    7
-0.297587
A    8
0.229043
A    9
-0.585683
A   10
0.115369
A   11
-0.008388
A   12
-0.670027
A   13
-0.344591
A   14
0.642611
A   15
-0.564558
A   16
-0.474800
A   17
0.548078
A   18
-0.545732
A   19
0.282888
A   20
0.283634
A   21
0.079681
A   22
0.069559
A   23
0.124190
A   24
0.064125
A   25
0.122948
A   26
0.111401
A   27
0.042132
A   28
0.379938
A   29
0.063908
A   30
0.065063
A   31
0.072082
A   32
0.254466
A   33
0.283253
A   34
0.347162
M  END
$$$$
