
     RDKit          3D

 51 54  0  0  0  0  0  0  0  0999 V2000
   -1.1995    0.7736    2.3848 C   0  0  0  0  0  0  0  0  0  0  0  0
    0.0402    0.8982    1.4973 C   0  0  1  0  0  0  0  0  0  0  0  0
    0.8531   -0.4199    1.5598 C   0  0  0  0  0  0  0  0  0  0  0  0
    2.2415   -0.1572    0.9285 C   0  0  0  0  0  0  0  0  0  0  0  0
    2.2001    0.6735   -0.3139 C   0  0  0  0  0  0  0  0  0  0  0  0
    3.3827    0.7821   -1.0515 C   0  0  0  0  0  0  0  0  0  0  0  0
    3.4362    1.5316   -2.2190 C   0  0  0  0  0  0  0  0  0  0  0  0
    2.2751    2.1742   -2.6662 C   0  0  0  0  0  0  0  0  0  0  0  0
    2.3114    2.9369   -3.8652 N   0  0  0  0  0  0  0  0  0  0  0  0
    1.5411    4.1832   -3.9200 C   0  0  0  0  0  0  0  0  0  0  0  0
    2.9497    2.4726   -4.9958 C   0  0  0  0  0  0  0  0  0  0  0  0
    2.9305    3.1333   -6.0221 O   0  0  0  0  0  0  0  0  0  0  0  0
    1.0866    2.0696   -1.9351 C   0  0  0  0  0  0  0  0  0  0  0  0
    1.0432    1.3343   -0.7510 C   0  0  0  0  0  0  0  0  0  0  0  0
   -0.2649    1.2028    0.0088 C   0  0  2  0  0  0  0  0  0  0  0  0
   -1.0951    2.4886   -0.1003 C   0  0  0  0  0  0  0  0  0  0  0  0
   -1.0477    0.0241   -0.6088 C   0  0  0  0  0  0  0  0  0  0  0  0
   -0.2674   -1.2932   -0.4624 C   0  0  0  0  0  0  0  0  0  0  0  0
    0.0739   -1.5233    0.9595 N   0  0  0  0  0  0  0  0  0  0  0  0
    0.7380   -2.8368    1.1479 C   0  0  0  0  0  0  0  0  0  0  0  0
   -0.3315   -3.9125    1.2382 C   0  0  0  0  0  0  0  0  0  0  0  0
   -0.0121   -5.1842    1.9940 C   0  0  0  0  0  0  0  0  0  0  0  0
   -0.9899   -4.1905    2.5726 C   0  0  0  0  0  0  0  0  0  0  0  0
   -1.8243   -0.0736    2.0685 H   0  0  0  0  0  0  0  0  0  0  0  0
   -0.9153    0.5864    3.4269 H   0  0  0  0  0  0  0  0  0  0  0  0
   -1.8143    1.6779    2.3669 H   0  0  0  0  0  0  0  0  0  0  0  0
    0.6770    1.7248    1.8969 H   0  0  0  0  0  0  0  0  0  0  0  0
    1.0030   -0.6948    2.6394 H   0  0  0  0  0  0  0  0  0  0  0  0
    2.7442   -1.1255    0.7236 H   0  0  0  0  0  0  0  0  0  0  0  0
    2.8847    0.3486    1.6822 H   0  0  0  0  0  0  0  0  0  0  0  0
    4.2830    0.2721   -0.7027 H   0  0  0  0  0  0  0  0  0  0  0  0
    4.3735    1.6223   -2.7657 H   0  0  0  0  0  0  0  0  0  0  0  0
    0.4934    3.9956   -4.2148 H   0  0  0  0  0  0  0  0  0  0  0  0
    1.9816    4.8724   -4.6672 H   0  0  0  0  0  0  0  0  0  0  0  0
    1.5515    4.6947   -2.9420 H   0  0  0  0  0  0  0  0  0  0  0  0
    3.4693    1.5053   -4.9262 H   0  0  0  0  0  0  0  0  0  0  0  0
    0.1851    2.5592   -2.3059 H   0  0  0  0  0  0  0  0  0  0  0  0
   -1.4194    2.6845   -1.1288 H   0  0  0  0  0  0  0  0  0  0  0  0
   -0.5264    3.3587    0.2454 H   0  0  0  0  0  0  0  0  0  0  0  0
   -2.0076    2.4269    0.5052 H   0  0  0  0  0  0  0  0  0  0  0  0
   -1.2549    0.2174   -1.6766 H   0  0  0  0  0  0  0  0  0  0  0  0
   -2.0304   -0.0668   -0.1077 H   0  0  0  0  0  0  0  0  0  0  0  0
   -0.9038   -2.1397   -0.8036 H   0  0  0  0  0  0  0  0  0  0  0  0
    0.6293   -1.2807   -1.1202 H   0  0  0  0  0  0  0  0  0  0  0  0
    1.4506   -3.0844    0.3292 H   0  0  0  0  0  0  0  0  0  0  0  0
    1.3381   -2.8192    2.0858 H   0  0  0  0  0  0  0  0  0  0  0  0
   -0.9492   -3.9791    0.3367 H   0  0  0  0  0  0  0  0  0  0  0  0
    0.9632   -5.3103    2.4548 H   0  0  0  0  0  0  0  0  0  0  0  0
   -0.3703   -6.1381    1.6177 H   0  0  0  0  0  0  0  0  0  0  0  0
   -2.0483   -4.4296    2.6100 H   0  0  0  0  0  0  0  0  0  0  0  0
   -0.7115   -3.5939    3.4369 H   0  0  0  0  0  0  0  0  0  0  0  0
  1  2  1  0
  2  3  1  0
  3  4  1  0
  4  5  1  0
  5  6  2  0
  6  7  1  0
  7  8  2  0
  8  9  1  0
  9 10  1  0
  9 11  1  0
 11 12  2  0
  8 13  1  0
 13 14  2  0
 14 15  1  0
 15 16  1  1
 15 17  1  0
 17 18  1  0
 18 19  1  0
 19 20  1  0
 20 21  1  0
 21 22  1  0
 22 23  1  0
 15  2  1  0
 23 21  1  0
 19  3  1  0
 14  5  1  0
  1 24  1  0
  1 25  1  0
  1 26  1  0
  2 27  1  1
  3 28  1  0
  4 29  1  0
  4 30  1  0
  6 31  1  0
  7 32  1  0
 10 33  1  0
 10 34  1  0
 10 35  1  0
 11 36  1  0
 13 37  1  0
 16 38  1  0
 16 39  1  0
 16 40  1  0
 17 41  1  0
 17 42  1  0
 18 43  1  0
 18 44  1  0
 20 45  1  0
 20 46  1  0
 21 47  1  0
 22 48  1  0
 22 49  1  0
 23 50  1  0
 23 51  1  0
A    1
-0.356577
A    2
-0.015018
A    3
0.084518
A    4
-0.232051
A    5
0.058474
A    6
-0.130996
A    7
-0.202551
A    8
0.155664
A    9
-0.105153
A   10
-0.211408
A   11
0.362934
A   12
-0.526344
A   13
-0.223035
A   14
0.020302
A   15
0.131404
A   16
-0.381788
A   17
-0.198772
A   18
-0.020277
A   19
-0.214339
A   20
-0.045244
A   21
-0.023200
A   22
-0.247244
A   23
-0.239851
A   24
0.099470
A   25
0.105239
A   26
0.100777
A   27
0.059293
A   28
0.046267
A   29
0.087676
A   30
0.091137
A   31
0.110013
A   32
0.115664
A   33
0.107097
A   34
0.121382
A   35
0.114852
A   36
0.060039
A   37
0.108605
A   38
0.108184
A   39
0.109577
A   40
0.113159
A   41
0.086608
A   42
0.085448
A   43
0.067450
A   44
0.038382
A   45
0.044404
A   46
0.073393
A   47
0.075264
A   48
0.108977
A   49
0.105574
A   50
0.107175
A   51
0.109447
M  END
$$$$
