
     RDKit          3D

 35 36  0  0  0  0  0  0  0  0999 V2000
    3.1542    1.8160   -4.7781 C   0  0  0  0  0  0  0  0  0  0  0  0
    2.2233    2.9679   -4.8426 C   0  0  0  0  0  0  0  0  0  0  0  0
    2.2310    3.7773   -5.7494 O   0  0  0  0  0  0  0  0  0  0  0  0
    1.2638    3.2320   -3.8396 N   0  0  0  0  0  0  0  0  0  0  0  0
    0.9579    2.5284   -2.6830 C   0  0  0  0  0  0  0  0  0  0  0  0
    1.3842    1.2115   -2.3603 C   0  0  0  0  0  0  0  0  0  0  0  0
    0.9380    0.6451   -1.1822 C   0  0  0  0  0  0  0  0  0  0  0  0
    0.1122    1.3394   -0.3544 N   0  0  0  0  0  0  0  0  0  0  0  0
   -0.4162    0.7573    0.9086 C   0  0  0  0  0  0  0  0  0  0  0  0
   -1.9491    0.5668    0.8468 C   0  0  0  0  0  0  0  0  0  0  0  0
   -2.1060   -0.7978    0.4756 O   0  0  0  0  0  0  0  0  0  0  0  0
   -0.9381   -1.5047    0.8607 C   0  0  0  0  0  0  0  0  0  0  0  0
   -1.2324   -2.1717    2.2166 C   0  0  0  0  0  0  0  0  0  0  0  0
    0.1594   -3.0325    2.9824 P   0  0  0  0  0  0  0  0  0  0  0  0
    1.2862   -3.5700    2.2113 O   0  0  0  0  0  0  0  0  0  0  0  0
    0.5891   -1.9883    4.1147 O   0  0  0  0  0  0  0  0  0  0  0  0
   -0.6437   -4.1615    3.7895 O   0  0  0  0  0  0  0  0  0  0  0  0
    0.1067   -0.5406    1.0207 O   0  0  0  0  0  0  0  0  0  0  0  0
   -0.2997    2.6875   -0.6819 C   0  0  0  0  0  0  0  0  0  0  0  0
   -1.0210    3.2503    0.1173 O   0  0  0  0  0  0  0  0  0  0  0  0
    0.1446    3.2265   -1.8586 N   0  0  0  0  0  0  0  0  0  0  0  0
    2.6418    0.8570   -4.9739 H   0  0  0  0  0  0  0  0  0  0  0  0
    3.9391    1.9059   -5.5543 H   0  0  0  0  0  0  0  0  0  0  0  0
    3.6841    1.7366   -3.8141 H   0  0  0  0  0  0  0  0  0  0  0  0
    0.7394    4.1238   -3.9702 H   0  0  0  0  0  0  0  0  0  0  0  0
    2.0239    0.6312   -3.0147 H   0  0  0  0  0  0  0  0  0  0  0  0
    1.2379   -0.3790   -0.8871 H   0  0  0  0  0  0  0  0  0  0  0  0
   -0.0296    1.3469    1.7766 H   0  0  0  0  0  0  0  0  0  0  0  0
   -2.4348    0.7321    1.8242 H   0  0  0  0  0  0  0  0  0  0  0  0
   -2.4665    1.1503    0.0669 H   0  0  0  0  0  0  0  0  0  0  0  0
   -0.6741   -2.1611    0.0039 H   0  0  0  0  0  0  0  0  0  0  0  0
   -1.6366   -1.3948    2.9433 H   0  0  0  0  0  0  0  0  0  0  0  0
   -2.0863   -2.9147    2.0708 H   0  0  0  0  0  0  0  0  0  0  0  0
    1.4841   -2.2674    4.5270 H   0  0  0  0  0  0  0  0  0  0  0  0
    0.0093   -4.8197    4.2192 H   0  0  0  0  0  0  0  0  0  0  0  0
  1  2  1  0
  2  3  2  0
  2  4  1  0
  4  5  1  0
  5  6  1  0
  6  7  2  0
  7  8  1  0
  8  9  1  0
  9 10  1  0
 10 11  1  0
 11 12  1  0
 12 13  1  0
 13 14  1  0
 14 15  2  0
 14 16  1  0
 14 17  1  0
 12 18  1  0
  8 19  1  0
 19 20  2  0
 19 21  1  0
 21  5  2  0
 18  9  1  0
  1 22  1  0
  1 23  1  0
  1 24  1  0
  4 25  1  0
  6 26  1  0
  7 27  1  0
  9 28  1  0
 10 29  1  0
 10 30  1  0
 12 31  1  0
 13 32  1  0
 13 33  1  0
 16 34  1  0
 17 35  1  0
A    1
-0.490581
A    2
0.673683
A    3
-0.584051
A    4
-0.435439
A    5
0.483436
A    6
-0.350409
A    7
0.139997
A    8
-0.179777
A    9
0.266980
A   10
-0.029788
A   11
-0.319423
A   12
0.408694
A   13
-0.544512
A   14
1.426477
A   15
-0.839124
A   16
-0.705349
A   17
-0.710802
A   18
-0.344570
A   19
0.642806
A   20
-0.624612
A   21
-0.605934
A   22
0.172275
A   23
0.163000
A   24
0.165137
A   25
0.331794
A   26
0.148878
A   27
0.129212
A   28
0.079433
A   29
0.089130
A   30
0.111698
A   31
0.050893
A   32
0.182152
A   33
0.180524
A   34
0.460170
A   35
0.458002
M  END
$$$$
