
     RDKit          3D

 38 42  0  0  0  0  0  0  0  0999 V2000
   -1.8831   -1.5652   -3.1612 N   0  0  0  0  0  0  0  0  0  0  0  0
   -2.0298   -2.1017   -1.7932 C   0  0  0  0  0  0  0  0  0  0  0  0
   -0.7114   -2.5904   -1.1474 C   0  0  0  0  0  0  0  0  0  0  0  0
    0.2378   -1.4559   -0.9592 C   0  0  0  0  0  0  0  0  0  0  0  0
    1.2997   -1.2228   -1.7840 C   0  0  0  0  0  0  0  0  0  0  0  0
    2.1699   -0.1203   -1.6057 C   0  0  0  0  0  0  0  0  0  0  0  0
    2.0037    0.7731   -0.5701 C   0  0  0  0  0  0  0  0  0  0  0  0
    2.8621    1.8567   -0.3719 N   0  0  0  0  0  0  0  0  0  0  0  0
    2.6612    2.7073    0.6798 C   0  0  0  0  0  0  0  0  0  0  0  0
    1.6194    2.5428    1.5592 C   0  0  0  0  0  0  0  0  0  0  0  0
    0.7003    1.4664    1.4036 C   0  0  0  0  0  0  0  0  0  0  0  0
   -0.4075    1.2408    2.2618 C   0  0  0  0  0  0  0  0  0  0  0  0
   -0.7233    2.0746    3.3694 C   0  0  0  0  0  0  0  0  0  0  0  0
   -1.8075    1.8098    4.1607 C   0  0  0  0  0  0  0  0  0  0  0  0
   -2.6415    0.6909    3.8884 C   0  0  0  0  0  0  0  0  0  0  0  0
   -2.3733   -0.1378    2.8372 C   0  0  0  0  0  0  0  0  0  0  0  0
   -1.2417    0.1177    1.9936 C   0  0  0  0  0  0  0  0  0  0  0  0
   -1.0238   -0.7447    0.9652 N   0  0  0  0  0  0  0  0  0  0  0  0
    0.0179   -0.5355    0.1398 C   0  0  0  0  0  0  0  0  0  0  0  0
    0.9054    0.5725    0.3302 C   0  0  0  0  0  0  0  0  0  0  0  0
    3.2024    0.0608   -2.4931 O   0  0  0  0  0  0  0  0  0  0  0  0
    3.2312   -0.9642   -3.4822 C   0  0  0  0  0  0  0  0  0  0  0  0
    1.8395   -2.1575   -3.1810 S   0  0  0  0  0  0  0  0  0  0  0  0
   -1.2699   -0.7592   -3.1701 H   0  0  0  0  0  0  0  0  0  0  0  0
   -1.4874   -2.2534   -3.7872 H   0  0  0  0  0  0  0  0  0  0  0  0
   -2.7567   -2.9418   -1.8251 H   0  0  0  0  0  0  0  0  0  0  0  0
   -2.4837   -1.3091   -1.1537 H   0  0  0  0  0  0  0  0  0  0  0  0
   -0.9524   -3.0473   -0.1582 H   0  0  0  0  0  0  0  0  0  0  0  0
   -0.2772   -3.4168   -1.7391 H   0  0  0  0  0  0  0  0  0  0  0  0
    3.6377    1.9876   -1.0200 H   0  0  0  0  0  0  0  0  0  0  0  0
    3.3858    3.5314    0.7772 H   0  0  0  0  0  0  0  0  0  0  0  0
    1.4943    3.2402    2.3841 H   0  0  0  0  0  0  0  0  0  0  0  0
   -0.0838    2.9348    3.5789 H   0  0  0  0  0  0  0  0  0  0  0  0
   -2.0499    2.4479    5.0087 H   0  0  0  0  0  0  0  0  0  0  0  0
   -3.4991    0.5116    4.5396 H   0  0  0  0  0  0  0  0  0  0  0  0
   -2.9965   -1.0020    2.6072 H   0  0  0  0  0  0  0  0  0  0  0  0
    4.2146   -1.4557   -3.3904 H   0  0  0  0  0  0  0  0  0  0  0  0
    3.1265   -0.4556   -4.4559 H   0  0  0  0  0  0  0  0  0  0  0  0
  1  2  1  0
  2  3  1  0
  3  4  1  0
  4  5  2  0
  5  6  1  0
  6  7  2  0
  7  8  1  0
  8  9  1  0
  9 10  2  0
 10 11  1  0
 11 12  1  0
 12 13  2  0
 13 14  1  0
 14 15  2  0
 15 16  1  0
 16 17  2  0
 17 18  1  0
 18 19  2  0
 19 20  1  0
  6 21  1  0
 21 22  1  0
 22 23  1  0
 19  4  1  0
 23  5  1  0
 20  7  1  0
 20 11  2  0
 17 12  1  0
  1 24  1  0
  1 25  1  0
  2 26  1  0
  2 27  1  0
  3 28  1  0
  3 29  1  0
  8 30  1  0
  9 31  1  0
 10 32  1  0
 13 33  1  0
 14 34  1  0
 15 35  1  0
 16 36  1  0
 22 37  1  0
 22 38  1  0
A    1
-0.691684
A    2
0.080808
A    3
-0.188215
A    4
-0.029285
A    5
-0.071009
A    6
0.062650
A    7
0.089794
A    8
-0.243775
A    9
0.088263
A   10
-0.268354
A   11
0.103250
A   12
-0.048867
A   13
-0.126339
A   14
-0.122459
A   15
-0.082005
A   16
-0.173920
A   17
0.213118
A   18
-0.425000
A   19
0.168846
A   20
-0.074219
A   21
-0.215107
A   22
0.044814
A   23
-0.071632
A   24
0.268984
A   25
0.271485
A   26
0.055606
A   27
0.058805
A   28
0.084026
A   29
0.082178
A   30
0.307529
A   31
0.109925
A   32
0.122511
A   33
0.105527
A   34
0.104011
A   35
0.103956
A   36
0.115383
A   37
0.095214
A   38
0.095188
M  END
$$$$
