
     RDKit          3D

 46 47  0  0  0  0  0  0  0  0999 V2000
    3.7121   -2.9712    3.4578 C   0  0  0  0  0  0  0  0  0  0  0  0
    2.9165   -1.7119    3.8010 C   0  0  0  0  0  0  0  0  0  0  0  0
    1.7316   -1.5020    2.8484 C   0  0  0  0  0  0  0  0  0  0  0  0
    2.1932   -1.0674    1.4519 C   0  0  0  0  0  0  0  0  0  0  0  0
    0.9825   -0.7925    0.5535 C   0  0  0  0  0  0  0  0  0  0  0  0
    1.4241   -0.5013   -0.8902 C   0  0  0  0  0  0  0  0  0  0  0  0
    1.8341   -1.7538   -1.5585 N   0  0  0  0  0  0  0  0  0  0  0  0
    0.2728    0.2231   -1.6842 C   0  0  0  0  0  0  0  0  0  0  0  0
    0.8342    0.3212   -2.9881 O   0  0  0  0  0  0  0  0  0  0  0  0
   -0.9655   -0.6439   -1.7301 C   0  0  0  0  0  0  0  0  0  0  0  0
   -1.9018   -0.5976   -0.6950 C   0  0  0  0  0  0  0  0  0  0  0  0
   -3.0217   -1.4237   -0.7299 C   0  0  0  0  0  0  0  0  0  0  0  0
   -3.2160   -2.2922   -1.8030 C   0  0  0  0  0  0  0  0  0  0  0  0
   -2.2862   -2.3354   -2.8392 C   0  0  0  0  0  0  0  0  0  0  0  0
   -1.1594   -1.5160   -2.8018 C   0  0  0  0  0  0  0  0  0  0  0  0
   -0.0357    1.6361   -1.2383 C   0  0  0  0  0  0  0  0  0  0  0  0
   -1.1513    2.2689   -1.7968 C   0  0  0  0  0  0  0  0  0  0  0  0
   -1.4526    3.5867   -1.4674 C   0  0  0  0  0  0  0  0  0  0  0  0
   -0.6415    4.2834   -0.5728 C   0  0  0  0  0  0  0  0  0  0  0  0
    0.4737    3.6597   -0.0201 C   0  0  0  0  0  0  0  0  0  0  0  0
    0.7800    2.3410   -0.3558 C   0  0  0  0  0  0  0  0  0  0  0  0
    3.0754   -3.8630    3.4696 H   0  0  0  0  0  0  0  0  0  0  0  0
    4.5266   -3.1366    4.1714 H   0  0  0  0  0  0  0  0  0  0  0  0
    4.1584   -2.9036    2.4585 H   0  0  0  0  0  0  0  0  0  0  0  0
    3.5810   -0.8275    3.7807 H   0  0  0  0  0  0  0  0  0  0  0  0
    2.5443   -1.7797    4.8417 H   0  0  0  0  0  0  0  0  0  0  0  0
    1.0475   -0.7409    3.2708 H   0  0  0  0  0  0  0  0  0  0  0  0
    1.1373   -2.4326    2.7769 H   0  0  0  0  0  0  0  0  0  0  0  0
    2.8321   -0.1680    1.5218 H   0  0  0  0  0  0  0  0  0  0  0  0
    2.8272   -1.8529    0.9963 H   0  0  0  0  0  0  0  0  0  0  0  0
    0.4014    0.0580    0.9585 H   0  0  0  0  0  0  0  0  0  0  0  0
    0.2916   -1.6589    0.5727 H   0  0  0  0  0  0  0  0  0  0  0  0
    2.3213    0.1740   -0.9031 H   0  0  0  0  0  0  0  0  0  0  0  0
    1.1176   -2.4646   -1.4810 H   0  0  0  0  0  0  0  0  0  0  0  0
    1.9962   -1.5885   -2.5471 H   0  0  0  0  0  0  0  0  0  0  0  0
    0.2441    0.8234   -3.5924 H   0  0  0  0  0  0  0  0  0  0  0  0
   -1.7617    0.0893    0.1404 H   0  0  0  0  0  0  0  0  0  0  0  0
   -3.7477   -1.3883    0.0820 H   0  0  0  0  0  0  0  0  0  0  0  0
   -4.0947   -2.9349   -1.8312 H   0  0  0  0  0  0  0  0  0  0  0  0
   -2.4389   -3.0106   -3.6805 H   0  0  0  0  0  0  0  0  0  0  0  0
   -0.4298   -1.5595   -3.6123 H   0  0  0  0  0  0  0  0  0  0  0  0
   -1.7964    1.7256   -2.4891 H   0  0  0  0  0  0  0  0  0  0  0  0
   -2.3222    4.0725   -1.9091 H   0  0  0  0  0  0  0  0  0  0  0  0
   -0.8800    5.3126   -0.3089 H   0  0  0  0  0  0  0  0  0  0  0  0
    1.1143    4.2026    0.6742 H   0  0  0  0  0  0  0  0  0  0  0  0
    1.6656    1.8777    0.0810 H   0  0  0  0  0  0  0  0  0  0  0  0
  1  2  1  0
  2  3  1  0
  3  4  1  0
  4  5  1  0
  5  6  1  0
  6  7  1  0
  6  8  1  0
  8  9  1  0
  8 10  1  0
 10 11  2  0
 11 12  1  0
 12 13  2  0
 13 14  1  0
 14 15  2  0
  8 16  1  0
 16 17  2  0
 17 18  1  0
 18 19  2  0
 19 20  1  0
 20 21  2  0
 15 10  1  0
 21 16  1  0
  1 22  1  0
  1 23  1  0
  1 24  1  0
  2 25  1  0
  2 26  1  0
  3 27  1  0
  3 28  1  0
  4 29  1  0
  4 30  1  0
  5 31  1  0
  5 32  1  0
  6 33  1  0
  7 34  1  0
  7 35  1  0
  9 36  1  0
 11 37  1  0
 12 38  1  0
 13 39  1  0
 14 40  1  0
 15 41  1  0
 17 42  1  0
 18 43  1  0
 19 44  1  0
 20 45  1  0
 21 46  1  0
A    1
-0.327147
A    2
-0.073506
A    3
-0.127688
A    4
-0.120628
A    5
-0.182171
A    6
0.134887
A    7
-0.680586
A    8
0.202638
A    9
-0.558288
A   10
0.012159
A   11
-0.122405
A   12
-0.094389
A   13
-0.108412
A   14
-0.097984
A   15
-0.137723
A   16
0.010678
A   17
-0.132901
A   18
-0.092301
A   19
-0.106096
A   20
-0.096114
A   21
-0.124766
A   22
0.096891
A   23
0.095648
A   24
0.097883
A   25
0.058542
A   26
0.054825
A   27
0.063748
A   28
0.068292
A   29
0.065760
A   30
0.067501
A   31
0.069796
A   32
0.080452
A   33
0.055198
A   34
0.272890
A   35
0.284708
A   36
0.369946
A   37
0.100380
A   38
0.100657
A   39
0.100660
A   40
0.102234
A   41
0.101354
A   42
0.099234
A   43
0.103951
A   44
0.103930
A   45
0.104738
A   46
0.103521
M  END
$$$$
