
     RDKit          3D

 43 45  0  0  0  0  0  0  0  0999 V2000
    2.0069   -1.7134   -0.3644 S   0  0  0  0  0  0  0  0  0  0  0  0
    1.5152   -2.8295    0.4106 O   0  0  0  0  0  0  0  0  0  0  0  0
    2.1744   -1.7891   -1.7997 O   0  0  0  0  0  0  0  0  0  0  0  0
    3.5861   -1.2704    0.3119 C   0  0  0  0  0  0  0  0  0  0  0  0
    4.5129   -0.5967   -0.4794 C   0  0  0  0  0  0  0  0  0  0  0  0
    5.7529   -0.2447    0.0520 C   0  0  0  0  0  0  0  0  0  0  0  0
    6.0656   -0.5763    1.3696 C   0  0  0  0  0  0  0  0  0  0  0  0
    5.1427   -1.2670    2.1534 C   0  0  0  0  0  0  0  0  0  0  0  0
    3.9025   -1.6193    1.6220 C   0  0  0  0  0  0  0  0  0  0  0  0
    1.0288   -0.2541    0.0623 C   0  0  0  0  0  0  0  0  0  0  0  0
   -0.2674    0.0003   -0.7421 C   0  0  1  0  0  0  0  0  0  0  0  0
   -0.9602   -1.2512   -0.6913 O   0  0  0  0  0  0  0  0  0  0  0  0
   -2.3382   -1.0437   -0.9329 O   0  0  0  0  0  0  0  0  0  0  0  0
   -2.9624   -0.5158    0.2477 C   0  0  0  0  0  0  0  0  0  0  0  0
   -4.0572    0.4203   -0.3125 C   0  0  0  0  0  0  0  0  0  0  0  0
   -3.5267    1.8654   -0.3905 C   0  0  0  0  0  0  0  0  0  0  0  0
   -2.0703    1.8843   -0.8774 C   0  0  0  0  0  0  0  0  0  0  0  0
   -1.1185    1.0676    0.0265 C   0  0  0  0  0  0  0  0  0  0  0  0
   -1.9358    0.2736    1.0624 C   0  0  0  0  0  0  0  0  0  0  0  0
   -5.3123    0.3521    0.5569 C   0  0  0  0  0  0  0  0  0  0  0  0
    0.0327    0.3562   -2.1909 C   0  0  0  0  0  0  0  0  0  0  0  0
    4.2897   -0.3523   -1.5239 H   0  0  0  0  0  0  0  0  0  0  0  0
    6.4788    0.2820   -0.5635 H   0  0  0  0  0  0  0  0  0  0  0  0
    7.0340   -0.3017    1.7845 H   0  0  0  0  0  0  0  0  0  0  0  0
    5.3925   -1.5376    3.1769 H   0  0  0  0  0  0  0  0  0  0  0  0
    3.1963   -2.1843    2.2409 H   0  0  0  0  0  0  0  0  0  0  0  0
    0.7703   -0.3394    1.1376 H   0  0  0  0  0  0  0  0  0  0  0  0
    1.6636    0.6467   -0.0344 H   0  0  0  0  0  0  0  0  0  0  0  0
   -3.3775   -1.3772    0.8048 H   0  0  0  0  0  0  0  0  0  0  0  0
   -4.3102    0.0767   -1.3475 H   0  0  0  0  0  0  0  0  0  0  0  0
   -3.6075    2.3628    0.5928 H   0  0  0  0  0  0  0  0  0  0  0  0
   -4.1591    2.4592   -1.0760 H   0  0  0  0  0  0  0  0  0  0  0  0
   -1.7138    2.9267   -0.9468 H   0  0  0  0  0  0  0  0  0  0  0  0
   -2.0580    1.4929   -1.9141 H   0  0  0  0  0  0  0  0  0  0  0  0
   -0.4348    1.7754    0.5414 H   0  0  0  0  0  0  0  0  0  0  0  0
   -2.4252    0.9345    1.7954 H   0  0  0  0  0  0  0  0  0  0  0  0
   -1.2945   -0.4076    1.6517 H   0  0  0  0  0  0  0  0  0  0  0  0
   -5.7484   -0.6542    0.5527 H   0  0  0  0  0  0  0  0  0  0  0  0
   -6.0831    1.0420    0.1942 H   0  0  0  0  0  0  0  0  0  0  0  0
   -5.0990    0.6160    1.5987 H   0  0  0  0  0  0  0  0  0  0  0  0
   -0.8768    0.2986   -2.8052 H   0  0  0  0  0  0  0  0  0  0  0  0
    0.7291   -0.3621   -2.6595 H   0  0  0  0  0  0  0  0  0  0  0  0
    0.4618    1.3548   -2.2951 H   0  0  0  0  0  0  0  0  0  0  0  0
  1  2  2  0
  1  3  2  0
  1  4  1  0
  4  5  2  0
  5  6  1  0
  6  7  2  0
  7  8  1  0
  8  9  2  0
  1 10  1  0
 11 10  1  1
 11 12  1  0
 12 13  1  0
 13 14  1  0
 14 15  1  0
 15 16  1  0
 16 17  1  0
 17 18  1  0
 18 19  1  0
 15 20  1  0
 11 21  1  0
  9  4  1  0
 18 11  1  0
 19 14  1  0
  5 22  1  0
  6 23  1  0
  7 24  1  0
  8 25  1  0
  9 26  1  0
 10 27  1  0
 10 28  1  0
 14 29  1  0
 15 30  1  0
 16 31  1  0
 16 32  1  0
 17 33  1  0
 17 34  1  0
 18 35  1  0
 19 36  1  0
 19 37  1  0
 20 38  1  0
 20 39  1  0
 20 40  1  0
 21 41  1  0
 21 42  1  0
 21 43  1  0
A    1
1.098525
A    2
-0.584313
A    3
-0.571476
A    4
-0.110544
A    5
-0.088008
A    6
-0.092086
A    7
-0.070468
A    8
-0.093128
A    9
-0.084214
A   10
-0.398404
A   11
0.318795
A   12
-0.192583
A   13
-0.177351
A   14
0.157492
A   15
0.020479
A   16
-0.154694
A   17
-0.150987
A   18
-0.048340
A   19
-0.229285
A   20
-0.366111
A   21
-0.444357
A   22
0.121313
A   23
0.114824
A   24
0.110315
A   25
0.115479
A   26
0.121627
A   27
0.144482
A   28
0.152119
A   29
0.039887
A   30
0.063175
A   31
0.070577
A   32
0.078784
A   33
0.073090
A   34
0.073084
A   35
0.074346
A   36
0.105217
A   37
0.090197
A   38
0.105008
A   39
0.109637
A   40
0.104010
A   41
0.128205
A   42
0.134519
A   43
0.131162
M  END
$$$$
