
     RDKit          3D

 33 34  0  0  0  0  0  0  0  0999 V2000
   -2.9570   -0.7354    2.7280 S   0  0  0  0  0  0  0  0  0  0  0  0
   -2.7573   -1.6073    1.3466 C   0  0  0  0  0  0  0  0  0  0  0  0
   -3.1405   -2.8909    1.1822 N   0  0  0  0  0  0  0  0  0  0  0  0
   -2.0694   -0.9702    0.2173 C   0  0  0  0  0  0  0  0  0  0  0  0
   -0.7212   -0.8079    0.1847 N   0  0  0  0  0  0  0  0  0  0  0  0
   -0.4497   -0.1105   -0.9370 N   0  0  0  0  0  0  0  0  0  0  0  0
   -1.5465    0.2221   -1.6271 N   0  0  0  0  0  0  0  0  0  0  0  0
   -2.6033   -0.3200   -0.9505 C   0  0  0  0  0  0  0  0  0  0  0  0
   -3.9864   -0.2289   -1.4068 C   0  0  0  0  0  0  0  0  0  0  0  0
   -5.0247   -1.5011   -1.1958 S   0  0  0  0  0  0  0  0  0  0  0  0
   -4.3538    0.9290   -1.9986 N   0  0  0  0  0  0  0  0  0  0  0  0
    0.8907    0.4394   -1.2646 C   0  0  0  0  0  0  0  0  0  0  0  0
    1.0454    1.6134   -0.5260 O   0  0  0  0  0  0  0  0  0  0  0  0
    1.7986    1.3835    0.6777 C   0  0  1  0  0  0  0  0  0  0  0  0
    2.4078   -0.0301    0.5983 C   0  0  1  0  0  0  0  0  0  0  0  0
    1.8662   -0.8746    1.5674 O   0  0  0  0  0  0  0  0  0  0  0  0
    2.0574   -0.5121   -0.8400 C   0  0  1  0  0  0  0  0  0  0  0  0
    1.7254   -1.8505   -0.9382 O   0  0  0  0  0  0  0  0  0  0  0  0
    2.8586    2.4959    0.6916 C   0  0  0  0  0  0  0  0  0  0  0  0
    3.9318    2.1327    1.5266 O   0  0  0  0  0  0  0  0  0  0  0  0
   -3.6761   -3.3638    1.8937 H   0  0  0  0  0  0  0  0  0  0  0  0
   -3.0983   -3.3465    0.2864 H   0  0  0  0  0  0  0  0  0  0  0  0
   -5.2879    1.0656   -2.3496 H   0  0  0  0  0  0  0  0  0  0  0  0
   -3.6968    1.6739   -2.1532 H   0  0  0  0  0  0  0  0  0  0  0  0
    0.8828    0.7479   -2.3395 H   0  0  0  0  0  0  0  0  0  0  0  0
    1.0724    1.4741    1.5146 H   0  0  0  0  0  0  0  0  0  0  0  0
    3.5002   -0.0664    0.8137 H   0  0  0  0  0  0  0  0  0  0  0  0
    0.8776   -0.9003    1.5120 H   0  0  0  0  0  0  0  0  0  0  0  0
    2.9120   -0.3960   -1.5448 H   0  0  0  0  0  0  0  0  0  0  0  0
    1.2639   -2.1699   -0.1181 H   0  0  0  0  0  0  0  0  0  0  0  0
    2.4353    3.4636    1.0120 H   0  0  0  0  0  0  0  0  0  0  0  0
    3.3349    2.6224   -0.3004 H   0  0  0  0  0  0  0  0  0  0  0  0
    3.6391    2.0482    2.4592 H   0  0  0  0  0  0  0  0  0  0  0  0
  1  2  2  0
  2  3  1  0
  2  4  1  0
  4  5  2  0
  5  6  1  0
  6  7  1  0
  7  8  2  0
  8  9  1  0
  9 10  2  0
  9 11  1  0
  6 12  1  0
 12 13  1  0
 13 14  1  0
 14 15  1  0
 15 16  1  0
 15 17  1  0
 17 18  1  0
 14 19  1  0
 19 20  1  0
  8  4  1  0
 17 12  1  0
  3 21  1  0
  3 22  1  0
 11 23  1  0
 11 24  1  0
 12 25  1  0
 14 26  1  1
 15 27  1  6
 16 28  1  0
 17 29  1  6
 18 30  1  0
 19 31  1  0
 19 32  1  0
 20 33  1  0
A    1
-0.456443
A    2
0.343333
A    3
-0.552061
A    4
0.073581
A    5
-0.277780
A    6
0.231730
A    7
-0.280641
A    8
0.038478
A    9
0.343483
A   10
-0.474300
A   11
-0.540907
A   12
0.168522
A   13
-0.317580
A   14
0.087503
A   15
0.131942
A   16
-0.546731
A   17
0.118075
A   18
-0.530138
A   19
0.065584
A   20
-0.537718
A   21
0.362696
A   22
0.340184
A   23
0.349320
A   24
0.340688
A   25
0.090296
A   26
0.062245
A   27
0.077074
A   28
0.330541
A   29
0.082635
A   30
0.364032
A   31
0.058332
A   32
0.077192
A   33
0.376838
M  END
$$$$
