
     RDKit          3D

 43 45  0  0  0  0  0  0  0  0999 V2000
    0.9750    0.8164    0.2109 O   0  0  0  0  0  0  0  0  0  0  0  0
    1.9834    0.2430   -0.2028 C   0  0  0  0  0  0  0  0  0  0  0  0
    1.8646   -0.6440   -1.2818 N   0  0  0  0  0  0  0  0  0  0  0  0
    3.0063   -1.3099   -1.7792 C   0  0  0  0  0  0  0  0  0  0  0  0
    4.1850   -1.1718   -1.2584 N   0  0  0  0  0  0  0  0  0  0  0  0
    4.3830   -0.3267   -0.1673 C   0  0  0  0  0  0  0  0  0  0  0  0
    3.3015    0.3966    0.3831 C   0  0  0  0  0  0  0  0  0  0  0  0
    3.5137    1.2557    1.4734 C   0  0  0  0  0  0  0  0  0  0  0  0
    4.7855    1.3795    2.0034 C   0  0  0  0  0  0  0  0  0  0  0  0
    5.8597    0.6557    1.4569 C   0  0  0  0  0  0  0  0  0  0  0  0
    5.6720   -0.1933    0.3797 C   0  0  0  0  0  0  0  0  0  0  0  0
    0.5624   -0.8295   -1.9384 C   0  0  0  0  0  0  0  0  0  0  0  0
   -0.4525   -1.4840   -0.9772 C   0  0  0  0  0  0  0  0  0  0  0  0
   -1.8715   -0.9431   -1.1429 C   0  0  0  0  0  0  0  0  0  0  0  0
   -2.1275    0.3756   -0.4425 N   0  0  0  0  0  0  0  0  0  0  0  0
   -1.2656    1.3338   -1.0105 O   0  0  0  0  0  0  0  0  0  0  0  0
   -3.4910    0.9285   -0.8094 C   0  0  0  0  0  0  0  0  0  0  0  0
   -4.6148    0.0784   -0.2168 C   0  0  0  0  0  0  0  0  0  0  0  0
   -4.3278   -0.3412    1.2310 C   0  0  0  0  0  0  0  0  0  0  0  0
   -3.2060    0.5005    1.8362 C   0  0  0  0  0  0  0  0  0  0  0  0
   -1.9018    0.3321    1.0534 C   0  0  0  0  0  0  0  0  0  0  0  0
    2.8599   -1.9771   -2.6464 H   0  0  0  0  0  0  0  0  0  0  0  0
    2.6699    1.8166    1.8850 H   0  0  0  0  0  0  0  0  0  0  0  0
    4.9633    2.0445    2.8515 H   0  0  0  0  0  0  0  0  0  0  0  0
    6.8578    0.7706    1.8922 H   0  0  0  0  0  0  0  0  0  0  0  0
    6.4986   -0.7597   -0.0585 H   0  0  0  0  0  0  0  0  0  0  0  0
    0.1989    0.1594   -2.3138 H   0  0  0  0  0  0  0  0  0  0  0  0
    0.6881   -1.4618   -2.8500 H   0  0  0  0  0  0  0  0  0  0  0  0
   -0.1035   -1.3921    0.0747 H   0  0  0  0  0  0  0  0  0  0  0  0
   -0.4649   -2.5850   -1.1511 H   0  0  0  0  0  0  0  0  0  0  0  0
   -2.1041   -0.8120   -2.2285 H   0  0  0  0  0  0  0  0  0  0  0  0
   -2.6102   -1.6802   -0.7417 H   0  0  0  0  0  0  0  0  0  0  0  0
   -0.3050    1.1835   -0.6030 H   0  0  0  0  0  0  0  0  0  0  0  0
   -3.5693    1.0006   -1.9189 H   0  0  0  0  0  0  0  0  0  0  0  0
   -3.5447    1.9833   -0.4386 H   0  0  0  0  0  0  0  0  0  0  0  0
   -5.5594    0.6681   -0.2617 H   0  0  0  0  0  0  0  0  0  0  0  0
   -4.8196   -0.8120   -0.8430 H   0  0  0  0  0  0  0  0  0  0  0  0
   -5.2484   -0.2406    1.8458 H   0  0  0  0  0  0  0  0  0  0  0  0
   -4.0748   -1.4179    1.2853 H   0  0  0  0  0  0  0  0  0  0  0  0
   -3.5065    1.5682    1.8872 H   0  0  0  0  0  0  0  0  0  0  0  0
   -3.0329    0.2086    2.8964 H   0  0  0  0  0  0  0  0  0  0  0  0
   -1.1740    1.1396    1.3374 H   0  0  0  0  0  0  0  0  0  0  0  0
   -1.4041   -0.6250    1.3296 H   0  0  0  0  0  0  0  0  0  0  0  0
  1  2  2  0
  2  3  1  0
  3  4  1  0
  4  5  2  0
  5  6  1  0
  6  7  2  0
  7  8  1  0
  8  9  2  0
  9 10  1  0
 10 11  2  0
  3 12  1  0
 12 13  1  0
 13 14  1  0
 14 15  1  0
 15 16  1  0
 15 17  1  0
 17 18  1  0
 18 19  1  0
 19 20  1  0
 20 21  1  0
  7  2  1  0
 11  6  1  0
 21 15  1  0
  4 22  1  0
  8 23  1  0
  9 24  1  0
 10 25  1  0
 11 26  1  0
 12 27  1  0
 12 28  1  0
 13 29  1  0
 13 30  1  0
 14 31  1  0
 14 32  1  0
 16 33  1  0
 17 34  1  0
 17 35  1  0
 18 36  1  0
 18 37  1  0
 19 38  1  0
 19 39  1  0
 20 40  1  0
 20 41  1  0
 21 42  1  0
 21 43  1  0
M  CHG  1  15   1
A    1
-0.527886
A    2
0.484297
A    3
-0.116044
A    4
0.199255
A    5
-0.405492
A    6
0.236403
A    7
-0.133684
A    8
-0.079230
A    9
-0.091188
A   10
-0.045501
A   11
-0.159165
A   12
-0.031227
A   13
-0.171340
A   14
-0.091517
A   15
0.311991
A   16
-0.456671
A   17
-0.074125
A   18
-0.152187
A   19
-0.127802
A   20
-0.143985
A   21
-0.089596
A   22
0.114156
A   23
0.120070
A   24
0.119516
A   25
0.118492
A   26
0.135454
A   27
0.089473
A   28
0.108552
A   29
0.100523
A   30
0.119539
A   31
0.127373
A   32
0.116804
A   33
0.350990
A   34
0.122685
A   35
0.116505
A   36
0.111340
A   37
0.084831
A   38
0.094217
A   39
0.075660
A   40
0.090679
A   41
0.111398
A   42
0.126046
A   43
0.110390
M  END
$$$$
