
     RDKit          3D

 38 40  0  0  0  0  0  0  0  0999 V2000
   -0.3267    0.2773    1.8132 Cl  0  0  0  0  0  0  0  0  0  0  0  0
   -0.7664   -0.4993    0.4033 C   0  0  0  0  0  0  0  0  0  0  0  0
   -2.0660   -0.5758   -0.0577 N   0  0  0  0  0  0  0  0  0  0  0  0
   -2.1185   -1.2710   -1.2312 N   0  0  0  0  0  0  0  0  0  0  0  0
   -0.8527   -1.6704   -1.5114 C   0  0  0  0  0  0  0  0  0  0  0  0
    0.0497   -1.1934   -0.4988 C   0  0  0  0  0  0  0  0  0  0  0  0
    1.4674   -1.3859   -0.4260 C   0  0  0  0  0  0  0  0  0  0  0  0
    2.3266   -0.3742   -0.2182 C   0  0  0  0  0  0  0  0  0  0  0  0
    3.7355   -0.4733   -0.0559 N   0  0  0  0  0  0  0  0  0  0  0  0
    4.3025    0.7683    0.2188 C   0  0  0  0  0  0  0  0  0  0  0  0
    5.8851    1.0858    0.5611 S   0  0  0  0  0  0  0  0  0  0  0  0
    3.2710    1.7100    0.1178 N   0  0  0  0  0  0  0  0  0  0  0  0
    2.0217    1.0965   -0.1689 C   0  0  0  0  0  0  0  0  0  0  0  0
    1.0047    1.7018   -0.3514 O   0  0  0  0  0  0  0  0  0  0  0  0
    3.4491    3.1493    0.2433 C   0  0  0  0  0  0  0  0  0  0  0  0
    4.3976   -1.7552    0.1298 C   0  0  0  0  0  0  0  0  0  0  0  0
   -0.5216   -2.4543   -2.7138 C   0  0  0  0  0  0  0  0  0  0  0  0
   -3.2367    0.0256    0.4840 C   0  0  0  0  0  0  0  0  0  0  0  0
   -4.0911    0.7422   -0.3615 C   0  0  0  0  0  0  0  0  0  0  0  0
   -5.2168    1.3541    0.1817 C   0  0  0  0  0  0  0  0  0  0  0  0
   -5.4837    1.2498    1.5462 C   0  0  0  0  0  0  0  0  0  0  0  0
   -4.6339    0.5179    2.3747 C   0  0  0  0  0  0  0  0  0  0  0  0
   -3.5070   -0.1093    1.8506 C   0  0  0  0  0  0  0  0  0  0  0  0
    1.8169   -2.4178   -0.5455 H   0  0  0  0  0  0  0  0  0  0  0  0
    2.4735    3.6579    0.1094 H   0  0  0  0  0  0  0  0  0  0  0  0
    4.1515    3.5325   -0.5214 H   0  0  0  0  0  0  0  0  0  0  0  0
    3.8461    3.4119    1.2429 H   0  0  0  0  0  0  0  0  0  0  0  0
    5.4993   -1.6359    0.1775 H   0  0  0  0  0  0  0  0  0  0  0  0
    4.1782   -2.4196   -0.7267 H   0  0  0  0  0  0  0  0  0  0  0  0
    4.0697   -2.2441    1.0663 H   0  0  0  0  0  0  0  0  0  0  0  0
   -1.4234   -2.7363   -3.2843 H   0  0  0  0  0  0  0  0  0  0  0  0
    0.0084   -3.3844   -2.4582 H   0  0  0  0  0  0  0  0  0  0  0  0
    0.1257   -1.8783   -3.3968 H   0  0  0  0  0  0  0  0  0  0  0  0
   -3.8724    0.8123   -1.4288 H   0  0  0  0  0  0  0  0  0  0  0  0
   -5.8890    1.9180   -0.4644 H   0  0  0  0  0  0  0  0  0  0  0  0
   -6.3611    1.7388    1.9661 H   0  0  0  0  0  0  0  0  0  0  0  0
   -4.8526    0.4312    3.4386 H   0  0  0  0  0  0  0  0  0  0  0  0
   -2.8608   -0.7025    2.4954 H   0  0  0  0  0  0  0  0  0  0  0  0
  1  2  1  0
  2  3  1  0
  3  4  1  0
  4  5  2  0
  5  6  1  0
  6  7  1  0
  7  8  2  0
  8  9  1  0
  9 10  1  0
 10 11  2  0
 10 12  1  0
 12 13  1  0
 13 14  2  0
 12 15  1  0
  9 16  1  0
  5 17  1  0
  3 18  1  0
 18 19  2  0
 19 20  1  0
 20 21  2  0
 21 22  1  0
 22 23  2  0
  2  6  2  0
  8 13  1  0
 23 18  1  0
  7 24  1  0
 15 25  1  0
 15 26  1  0
 15 27  1  0
 16 28  1  0
 16 29  1  0
 16 30  1  0
 17 31  1  0
 17 32  1  0
 17 33  1  0
 19 34  1  0
 20 35  1  0
 21 36  1  0
 22 37  1  0
 23 38  1  0
A    1
-0.038814
A    2
0.118816
A    3
0.081469
A    4
-0.359780
A    5
0.227651
A    6
-0.126822
A    7
-0.111365
A    8
0.008062
A    9
-0.064128
A   10
0.295718
A   11
-0.471081
A   12
-0.128288
A   13
0.450867
A   14
-0.474750
A   15
-0.194096
A   16
-0.204663
A   17
-0.380046
A   18
0.150867
A   19
-0.153091
A   20
-0.080693
A   21
-0.100497
A   22
-0.077629
A   23
-0.174358
A   24
0.121429
A   25
0.129050
A   26
0.115699
A   27
0.114952
A   28
0.121538
A   29
0.117095
A   30
0.116533
A   31
0.136373
A   32
0.130477
A   33
0.130736
A   34
0.124070
A   35
0.111459
A   36
0.106934
A   37
0.111543
A   38
0.118763
M  END
$$$$
