
     RDKit          3D

 50 52  0  0  0  0  0  0  0  0999 V2000
    3.5797   -1.0351    0.4821 C   0  0  0  0  0  0  0  0  0  0  0  0
    2.3964   -1.4004    1.3825 C   0  0  0  0  0  0  0  0  0  0  0  0
    1.6689   -2.6207    0.8136 C   0  0  0  0  0  0  0  0  0  0  0  0
    1.4678   -0.1772    1.5974 C   0  0  0  0  0  0  0  0  0  0  0  0
    0.4279   -0.5106    2.6469 C   0  0  0  0  0  0  0  0  0  0  0  0
    0.8107   -0.4460    3.8814 N   0  0  0  0  0  0  0  0  0  0  0  0
   -0.1897   -0.7716    4.7850 O   0  0  0  0  0  0  0  0  0  0  0  0
   -0.9378   -0.8778    2.1601 C   0  0  0  0  0  0  0  0  0  0  0  0
   -1.5265    0.2259    1.2359 C   0  0  0  0  0  0  0  0  0  0  0  0
   -2.4082   -0.4248    0.1873 C   0  0  0  0  0  0  0  0  0  0  0  0
   -3.4676   -1.2275    0.6242 C   0  0  0  0  0  0  0  0  0  0  0  0
   -4.3096   -1.8394   -0.2998 C   0  0  0  0  0  0  0  0  0  0  0  0
   -4.1040   -1.6519   -1.6663 C   0  0  0  0  0  0  0  0  0  0  0  0
   -3.0575   -0.8440   -2.1030 C   0  0  0  0  0  0  0  0  0  0  0  0
   -2.2149   -0.2279   -1.1791 C   0  0  0  0  0  0  0  0  0  0  0  0
   -0.4955    1.0740    0.5882 N   0  0  0  0  0  0  0  0  0  0  0  0
   -0.2619    2.3137    1.3549 C   0  0  0  0  0  0  0  0  0  0  0  0
    0.7365    0.2960    0.3084 C   0  0  0  0  0  0  0  0  0  0  0  0
    1.6265    1.0957   -0.6192 C   0  0  0  0  0  0  0  0  0  0  0  0
    1.5249    0.8582   -1.9932 C   0  0  0  0  0  0  0  0  0  0  0  0
    2.3227    1.5653   -2.8893 C   0  0  0  0  0  0  0  0  0  0  0  0
    3.2251    2.5181   -2.4208 C   0  0  0  0  0  0  0  0  0  0  0  0
    3.3279    2.7591   -1.0525 C   0  0  0  0  0  0  0  0  0  0  0  0
    2.5328    2.0501   -0.1545 C   0  0  0  0  0  0  0  0  0  0  0  0
    4.0909   -0.1295    0.8276 H   0  0  0  0  0  0  0  0  0  0  0  0
    3.2631   -0.8554   -0.5522 H   0  0  0  0  0  0  0  0  0  0  0  0
    4.3207   -1.8425    0.4588 H   0  0  0  0  0  0  0  0  0  0  0  0
    2.8027   -1.6762    2.3922 H   0  0  0  0  0  0  0  0  0  0  0  0
    1.2301   -2.4203   -0.1705 H   0  0  0  0  0  0  0  0  0  0  0  0
    2.3618   -3.4626    0.6876 H   0  0  0  0  0  0  0  0  0  0  0  0
    0.8672   -2.9625    1.4774 H   0  0  0  0  0  0  0  0  0  0  0  0
    2.1079    0.6613    1.9788 H   0  0  0  0  0  0  0  0  0  0  0  0
    0.2682   -0.6491    5.6744 H   0  0  0  0  0  0  0  0  0  0  0  0
   -0.8811   -1.8459    1.6138 H   0  0  0  0  0  0  0  0  0  0  0  0
   -1.6381   -1.0670    3.0000 H   0  0  0  0  0  0  0  0  0  0  0  0
   -2.1882    0.8915    1.8610 H   0  0  0  0  0  0  0  0  0  0  0  0
   -3.6408   -1.3757    1.6896 H   0  0  0  0  0  0  0  0  0  0  0  0
   -5.1319   -2.4642    0.0455 H   0  0  0  0  0  0  0  0  0  0  0  0
   -4.7613   -2.1333   -2.3872 H   0  0  0  0  0  0  0  0  0  0  0  0
   -2.8967   -0.6883   -3.1688 H   0  0  0  0  0  0  0  0  0  0  0  0
   -1.4087    0.4204   -1.5302 H   0  0  0  0  0  0  0  0  0  0  0  0
    0.3891    2.9841    0.7682 H   0  0  0  0  0  0  0  0  0  0  0  0
    0.1931    2.1630    2.3453 H   0  0  0  0  0  0  0  0  0  0  0  0
   -1.2206    2.8442    1.4925 H   0  0  0  0  0  0  0  0  0  0  0  0
    0.3912   -0.6294   -0.2432 H   0  0  0  0  0  0  0  0  0  0  0  0
    0.8185    0.1182   -2.3696 H   0  0  0  0  0  0  0  0  0  0  0  0
    2.2398    1.3728   -3.9582 H   0  0  0  0  0  0  0  0  0  0  0  0
    3.8466    3.0728   -3.1213 H   0  0  0  0  0  0  0  0  0  0  0  0
    4.0311    3.5040   -0.6824 H   0  0  0  0  0  0  0  0  0  0  0  0
    2.6284    2.2482    0.9136 H   0  0  0  0  0  0  0  0  0  0  0  0
  1  2  1  0
  2  3  1  0
  2  4  1  0
  4  5  1  0
  5  6  2  3
  6  7  1  0
  5  8  1  0
  8  9  1  0
  9 10  1  0
 10 11  2  0
 11 12  1  0
 12 13  2  0
 13 14  1  0
 14 15  2  0
  9 16  1  0
 16 17  1  0
 16 18  1  0
 18 19  1  0
 19 20  2  0
 20 21  1  0
 21 22  2  0
 22 23  1  0
 23 24  2  0
 18  4  1  0
 24 19  1  0
 15 10  1  0
  1 25  1  0
  1 26  1  0
  1 27  1  0
  2 28  1  0
  3 29  1  0
  3 30  1  0
  3 31  1  0
  4 32  1  0
  7 33  1  0
  8 34  1  0
  8 35  1  0
  9 36  1  0
 11 37  1  0
 12 38  1  0
 13 39  1  0
 14 40  1  0
 15 41  1  0
 17 42  1  0
 17 43  1  0
 17 44  1  0
 18 45  1  0
 20 46  1  0
 21 47  1  0
 22 48  1  0
 23 49  1  0
 24 50  1  0
A    1
-0.359591
A    2
0.115133
A    3
-0.367273
A    4
-0.140683
A    5
0.218759
A    6
-0.235145
A    7
-0.392914
A    8
-0.253502
A    9
0.091914
A   10
0.049453
A   11
-0.150434
A   12
-0.095253
A   13
-0.117630
A   14
-0.094453
A   15
-0.142758
A   16
-0.200978
A   17
-0.225779
A   18
0.057639
A   19
0.068454
A   20
-0.139209
A   21
-0.092414
A   22
-0.105027
A   23
-0.096853
A   24
-0.131643
A   25
0.102765
A   26
0.100175
A   27
0.101570
A   28
0.044520
A   29
0.105855
A   30
0.112012
A   31
0.106218
A   32
0.072891
A   33
0.376429
A   34
0.100948
A   35
0.109354
A   36
0.069033
A   37
0.108610
A   38
0.099116
A   39
0.101226
A   40
0.101891
A   41
0.089046
A   42
0.097291
A   43
0.079400
A   44
0.102402
A   45
0.049925
A   46
0.102771
A   47
0.099711
A   48
0.099984
A   49
0.103620
A   50
0.103427
M  END
$$$$
