
     RDKit          3D

 38 39  0  0  0  0  0  0  0  0999 V2000
   -1.8901   -2.7141   -2.7631 C   0  0  0  0  0  0  0  0  0  0  0  0
   -2.1860   -1.7492   -1.7579 C   0  0  0  0  0  0  0  0  0  0  0  0
   -2.4354   -0.9308   -0.8990 C   0  0  0  0  0  0  0  0  0  0  0  0
   -2.7071    0.0558    0.1158 C   0  0  0  0  0  0  0  0  0  0  0  0
   -2.5613    1.3748   -0.3938 O   0  0  0  0  0  0  0  0  0  0  0  0
   -4.0121   -0.0962    0.7085 C   0  0  0  0  0  0  0  0  0  0  0  0
   -5.1109   -0.1978    1.2098 C   0  0  0  0  0  0  0  0  0  0  0  0
   -6.4005   -0.3137    1.8037 C   0  0  0  0  0  0  0  0  0  0  0  0
   -1.6096   -0.0548    1.2075 C   0  0  0  0  0  0  0  0  0  0  0  0
   -1.7503   -0.5576    2.2936 O   0  0  0  0  0  0  0  0  0  0  0  0
   -0.4545    0.4407    0.7499 O   0  0  0  0  0  0  0  0  0  0  0  0
    0.6830    0.3828    1.6271 C   0  0  0  0  0  0  0  0  0  0  0  0
    1.2604   -1.0513    1.6381 C   0  0  0  0  0  0  0  0  0  0  0  0
    2.6503   -1.0769    1.1162 N   0  0  0  0  0  0  0  0  0  0  0  0
    3.4847   -0.1439    1.9201 C   0  0  0  0  0  0  0  0  0  0  0  0
    2.9683    1.3149    1.8355 C   0  0  0  0  0  0  0  0  0  0  0  0
    1.6996    1.3359    0.9642 C   0  0  0  0  0  0  0  0  0  0  0  0
    2.0405    0.8035   -0.4389 C   0  0  0  0  0  0  0  0  0  0  0  0
    2.6400   -0.6175   -0.2986 C   0  0  0  0  0  0  0  0  0  0  0  0
   -1.8470   -2.2660   -3.7757 H   0  0  0  0  0  0  0  0  0  0  0  0
   -2.6479   -3.5207   -2.8087 H   0  0  0  0  0  0  0  0  0  0  0  0
   -0.9117   -3.2082   -2.5958 H   0  0  0  0  0  0  0  0  0  0  0  0
   -3.1658    1.5045   -1.1651 H   0  0  0  0  0  0  0  0  0  0  0  0
   -7.2171   -0.1856    1.0667 H   0  0  0  0  0  0  0  0  0  0  0  0
   -6.5543   -1.3027    2.2795 H   0  0  0  0  0  0  0  0  0  0  0  0
   -6.5660    0.4445    2.5952 H   0  0  0  0  0  0  0  0  0  0  0  0
    0.3752    0.7272    2.6345 H   0  0  0  0  0  0  0  0  0  0  0  0
    1.2565   -1.4732    2.6647 H   0  0  0  0  0  0  0  0  0  0  0  0
    0.6333   -1.7293    1.0199 H   0  0  0  0  0  0  0  0  0  0  0  0
    4.5301   -0.2133    1.5555 H   0  0  0  0  0  0  0  0  0  0  0  0
    3.4942   -0.4984    2.9710 H   0  0  0  0  0  0  0  0  0  0  0  0
    3.7383    1.9737    1.3987 H   0  0  0  0  0  0  0  0  0  0  0  0
    2.7607    1.7177    2.8415 H   0  0  0  0  0  0  0  0  0  0  0  0
    1.2781    2.3612    0.8958 H   0  0  0  0  0  0  0  0  0  0  0  0
    2.7477    1.4798   -0.9460 H   0  0  0  0  0  0  0  0  0  0  0  0
    1.1323    0.7824   -1.0691 H   0  0  0  0  0  0  0  0  0  0  0  0
    3.6800   -0.6473   -0.6820 H   0  0  0  0  0  0  0  0  0  0  0  0
    2.0589   -1.3492   -0.8961 H   0  0  0  0  0  0  0  0  0  0  0  0
  1  2  1  0
  2  3  3  0
  3  4  1  0
  4  5  1  0
  4  6  1  0
  6  7  3  0
  7  8  1  0
  4  9  1  0
  9 10  2  0
  9 11  1  0
 11 12  1  0
 12 13  1  0
 13 14  1  0
 14 15  1  0
 15 16  1  0
 16 17  1  0
 17 18  1  0
 18 19  1  0
 17 12  1  0
 19 14  1  0
  1 20  1  0
  1 21  1  0
  1 22  1  0
  5 23  1  0
  8 24  1  0
  8 25  1  0
  8 26  1  0
 12 27  1  0
 13 28  1  0
 13 29  1  0
 15 30  1  0
 15 31  1  0
 16 32  1  0
 16 33  1  0
 17 34  1  0
 18 35  1  0
 18 36  1  0
 19 37  1  0
 19 38  1  0
A    1
-0.296388
A    2
0.037211
A    3
-0.258497
A    4
0.345097
A    5
-0.541841
A    6
-0.258285
A    7
0.027266
A    8
-0.292041
A    9
0.556077
A   10
-0.504568
A   11
-0.278793
A   12
0.156062
A   13
-0.101767
A   14
-0.236873
A   15
-0.023347
A   16
-0.183127
A   17
-0.019982
A   18
-0.178443
A   19
-0.024593
A   20
0.138884
A   21
0.138024
A   22
0.137575
A   23
0.390027
A   24
0.134741
A   25
0.138444
A   26
0.136228
A   27
0.054992
A   28
0.083390
A   29
0.087290
A   30
0.063880
A   31
0.066460
A   32
0.078558
A   33
0.074848
A   34
0.072711
A   35
0.075813
A   36
0.077260
A   37
0.064139
A   38
0.063566
M  END
$$$$
