
     RDKit          3D

 35 38  0  0  0  0  0  0  0  0999 V2000
   -0.8368   -1.9768   -0.7524 O   0  0  0  0  0  0  0  0  0  0  0  0
   -1.5390   -0.8586   -0.3391 C   0  0  0  0  0  0  0  0  0  0  0  0
   -0.7409    0.3004   -0.2242 C   0  0  0  0  0  0  0  0  0  0  0  0
   -1.3142    1.4891    0.1844 C   0  0  0  0  0  0  0  0  0  0  0  0
   -2.6795    1.4856    0.4772 C   0  0  0  0  0  0  0  0  0  0  0  0
   -3.3396    2.6015    0.8983 O   0  0  0  0  0  0  0  0  0  0  0  0
   -3.4709    0.3176    0.3493 C   0  0  0  0  0  0  0  0  0  0  0  0
   -4.7769    0.4985    0.6655 O   0  0  0  0  0  0  0  0  0  0  0  0
   -5.6191   -0.6440    0.5641 C   0  0  0  0  0  0  0  0  0  0  0  0
   -2.8956   -0.8866   -0.0681 C   0  0  0  0  0  0  0  0  0  0  0  0
    0.6152   -0.0722   -0.7288 C   0  0  0  0  0  0  0  0  0  0  0  0
    1.9278    0.3181   -0.1668 C   0  0  0  0  0  0  0  0  0  0  0  0
    2.9829   -0.5651   -0.4770 C   0  0  0  0  0  0  0  0  0  0  0  0
    2.8555   -1.7283   -1.1740 O   0  0  0  0  0  0  0  0  0  0  0  0
    1.5457   -2.2363   -1.4846 C   0  0  0  0  0  0  0  0  0  0  0  0
    0.5454   -1.6235   -0.5315 C   0  0  0  0  0  0  0  0  0  0  0  0
    4.2936   -0.3026   -0.0733 C   0  0  0  0  0  0  0  0  0  0  0  0
    4.5085    0.8648    0.6616 C   0  0  0  0  0  0  0  0  0  0  0  0
    5.7423    1.2162    1.1004 O   0  0  0  0  0  0  0  0  0  0  0  0
    3.4795    1.7492    1.0047 C   0  0  0  0  0  0  0  0  0  0  0  0
    2.1865    1.4609    0.5798 C   0  0  0  0  0  0  0  0  0  0  0  0
   -0.7285    2.3994    0.2705 H   0  0  0  0  0  0  0  0  0  0  0  0
   -2.7278    3.3762    0.9512 H   0  0  0  0  0  0  0  0  0  0  0  0
   -5.6684   -1.0077   -0.4666 H   0  0  0  0  0  0  0  0  0  0  0  0
   -6.5908   -0.2331    0.8727 H   0  0  0  0  0  0  0  0  0  0  0  0
   -5.3017   -1.4314    1.2544 H   0  0  0  0  0  0  0  0  0  0  0  0
   -3.4652   -1.8019   -0.1745 H   0  0  0  0  0  0  0  0  0  0  0  0
    0.6266    0.1905   -1.8281 H   0  0  0  0  0  0  0  0  0  0  0  0
    1.3532   -2.0015   -2.5460 H   0  0  0  0  0  0  0  0  0  0  0  0
    1.6746   -3.3279   -1.3629 H   0  0  0  0  0  0  0  0  0  0  0  0
    0.7569   -1.9173    0.5236 H   0  0  0  0  0  0  0  0  0  0  0  0
    5.0952   -0.9863   -0.3230 H   0  0  0  0  0  0  0  0  0  0  0  0
    6.4355    0.5620    0.8389 H   0  0  0  0  0  0  0  0  0  0  0  0
    3.7020    2.6361    1.5895 H   0  0  0  0  0  0  0  0  0  0  0  0
    1.3680    2.1351    0.8357 H   0  0  0  0  0  0  0  0  0  0  0  0
  1  2  1  0
  2  3  2  0
  3  4  1  0
  4  5  2  0
  5  6  1  0
  5  7  1  0
  7  8  1  0
  8  9  1  0
  7 10  2  0
  3 11  1  0
 11 12  1  0
 12 13  2  0
 13 14  1  0
 14 15  1  0
 15 16  1  0
 13 17  1  0
 17 18  2  0
 18 19  1  0
 18 20  1  0
 20 21  2  0
 16  1  1  0
 10  2  1  0
 16 11  1  0
 21 12  1  0
  4 22  1  0
  6 23  1  0
  9 24  1  0
  9 25  1  0
  9 26  1  0
 10 27  1  0
 11 28  1  0
 15 29  1  0
 15 30  1  0
 16 31  1  0
 17 32  1  0
 19 33  1  0
 20 34  1  0
 21 35  1  0
A    1
-0.277408
A    2
0.207897
A    3
-0.040669
A    4
-0.266030
A    5
0.192650
A    6
-0.490730
A    7
0.158471
A    8
-0.183867
A    9
-0.130239
A   10
-0.332738
A   11
-0.073854
A   12
-0.079774
A   13
0.240995
A   14
-0.237669
A   15
0.006521
A   16
0.134065
A   17
-0.383617
A   18
0.344212
A   19
-0.511896
A   20
-0.264367
A   21
-0.094166
A   22
0.133408
A   23
0.396645
A   24
0.094968
A   25
0.109689
A   26
0.097674
A   27
0.144487
A   28
0.085078
A   29
0.082328
A   30
0.086409
A   31
0.058147
A   32
0.151029
A   33
0.408683
A   34
0.128028
A   35
0.105638
M  END
$$$$
