
     RDKit          3D

 50 53  0  0  0  0  0  0  0  0999 V2000
    0.3970   -0.6722    0.8816 O   0  0  0  0  0  0  0  0  0  0  0  0
   -0.4489   -1.0612    0.1046 C   0  0  0  0  0  0  0  0  0  0  0  0
   -0.4882   -2.4666   -0.4182 C   0  0  0  0  0  0  0  0  0  0  0  0
   -1.9054   -2.9262   -0.7872 C   0  0  0  0  0  0  0  0  0  0  0  0
   -1.8640   -4.3388   -1.4104 C   0  0  0  0  0  0  0  0  0  0  0  0
   -1.9599   -5.3222   -0.2318 C   0  0  0  0  0  0  0  0  0  0  0  0
   -2.5427   -4.5382    0.9607 C   0  0  0  0  0  0  0  0  0  0  0  0
   -2.7759   -3.0973    0.4785 C   0  0  0  0  0  0  0  0  0  0  0  0
   -2.5029   -1.9087   -1.7629 C   0  0  0  0  0  0  0  0  0  0  0  0
   -2.4453   -0.4993   -1.2488 C   0  0  0  0  0  0  0  0  0  0  0  0
   -3.2353    0.3524   -1.6011 O   0  0  0  0  0  0  0  0  0  0  0  0
   -1.4324   -0.1575   -0.3393 N   0  0  0  0  0  0  0  0  0  0  0  0
   -1.3552    1.2386    0.1330 C   0  0  0  0  0  0  0  0  0  0  0  0
   -0.4216    2.0458   -0.8022 C   0  0  0  0  0  0  0  0  0  0  0  0
   -0.2699    3.4006   -0.2228 N   0  0  0  0  0  0  0  0  0  0  0  0
    0.0127    4.4112   -1.2636 C   0  0  0  0  0  0  0  0  0  0  0  0
    1.3495    4.1863   -1.9955 C   0  0  0  0  0  0  0  0  0  0  0  0
    2.4564    3.8363   -1.0528 C   0  0  0  0  0  0  0  0  0  0  0  0
    3.7751    3.8625   -1.5147 C   0  0  0  0  0  0  0  0  0  0  0  0
    4.8240    3.5217   -0.6666 C   0  0  0  0  0  0  0  0  0  0  0  0
    4.5624    3.1495    0.6512 C   0  0  0  0  0  0  0  0  0  0  0  0
    3.2510    3.1184    1.1160 C   0  0  0  0  0  0  0  0  0  0  0  0
    2.1964    3.4606    0.2685 C   0  0  0  0  0  0  0  0  0  0  0  0
    0.7917    3.4399    0.8074 C   0  0  0  0  0  0  0  0  0  0  0  0
   -0.0482   -3.1578    0.3374 H   0  0  0  0  0  0  0  0  0  0  0  0
    0.1946   -2.5425   -1.2960 H   0  0  0  0  0  0  0  0  0  0  0  0
   -0.9560   -4.5042   -2.0106 H   0  0  0  0  0  0  0  0  0  0  0  0
   -2.7134   -4.4827   -2.1017 H   0  0  0  0  0  0  0  0  0  0  0  0
   -2.5890   -6.1892   -0.4881 H   0  0  0  0  0  0  0  0  0  0  0  0
   -0.9674   -5.7327    0.0193 H   0  0  0  0  0  0  0  0  0  0  0  0
   -3.4798   -4.9925    1.3205 H   0  0  0  0  0  0  0  0  0  0  0  0
   -1.8474   -4.5586    1.8173 H   0  0  0  0  0  0  0  0  0  0  0  0
   -3.8424   -2.9367    0.2408 H   0  0  0  0  0  0  0  0  0  0  0  0
   -2.5276   -2.3605    1.2584 H   0  0  0  0  0  0  0  0  0  0  0  0
   -1.9762   -1.9533   -2.7452 H   0  0  0  0  0  0  0  0  0  0  0  0
   -3.5587   -2.1685   -2.0056 H   0  0  0  0  0  0  0  0  0  0  0  0
   -2.3732    1.6914    0.1481 H   0  0  0  0  0  0  0  0  0  0  0  0
   -0.9783    1.2548    1.1816 H   0  0  0  0  0  0  0  0  0  0  0  0
   -0.8806    2.1113   -1.8126 H   0  0  0  0  0  0  0  0  0  0  0  0
    0.5480    1.5178   -0.9281 H   0  0  0  0  0  0  0  0  0  0  0  0
    0.0126    5.4101   -0.7706 H   0  0  0  0  0  0  0  0  0  0  0  0
   -0.8294    4.4201   -1.9896 H   0  0  0  0  0  0  0  0  0  0  0  0
    1.6054    5.0911   -2.5843 H   0  0  0  0  0  0  0  0  0  0  0  0
    1.2377    3.3745   -2.7472 H   0  0  0  0  0  0  0  0  0  0  0  0
    3.9819    4.1511   -2.5446 H   0  0  0  0  0  0  0  0  0  0  0  0
    5.8495    3.5457   -1.0327 H   0  0  0  0  0  0  0  0  0  0  0  0
    5.3827    2.8822    1.3157 H   0  0  0  0  0  0  0  0  0  0  0  0
    3.0462    2.8221    2.1450 H   0  0  0  0  0  0  0  0  0  0  0  0
    0.6516    2.5796    1.5036 H   0  0  0  0  0  0  0  0  0  0  0  0
    0.6189    4.3598    1.4211 H   0  0  0  0  0  0  0  0  0  0  0  0
  1  2  2  0
  2  3  1  0
  3  4  1  0
  4  5  1  0
  5  6  1  0
  6  7  1  0
  7  8  1  0
  4  9  1  0
  9 10  1  0
 10 11  2  0
 10 12  1  0
 12 13  1  0
 13 14  1  0
 14 15  1  0
 15 16  1  0
 16 17  1  0
 17 18  1  0
 18 19  2  0
 19 20  1  0
 20 21  2  0
 21 22  1  0
 22 23  2  0
 23 24  1  0
 12  2  1  0
 24 15  1  0
  8  4  1  0
 23 18  1  0
  3 25  1  0
  3 26  1  0
  5 27  1  0
  5 28  1  0
  6 29  1  0
  6 30  1  0
  7 31  1  0
  7 32  1  0
  8 33  1  0
  8 34  1  0
  9 35  1  0
  9 36  1  0
 13 37  1  0
 13 38  1  0
 14 39  1  0
 14 40  1  0
 16 41  1  0
 16 42  1  0
 17 43  1  0
 17 44  1  0
 19 45  1  0
 20 46  1  0
 21 47  1  0
 22 48  1  0
 24 49  1  0
 24 50  1  0
A    1
-0.521266
A    2
0.544758
A    3
-0.329529
A    4
0.178012
A    5
-0.179235
A    6
-0.116485
A    7
-0.117470
A    8
-0.186318
A    9
-0.340739
A   10
0.555093
A   11
-0.528986
A   12
-0.226795
A   13
-0.043607
A   14
-0.052440
A   15
-0.215311
A   16
-0.032102
A   17
-0.194529
A   18
0.063676
A   19
-0.157648
A   20
-0.108091
A   21
-0.110334
A   22
-0.149276
A   23
0.029916
A   24
-0.069684
A   25
0.131168
A   26
0.128642
A   27
0.079245
A   28
0.079858
A   29
0.066927
A   30
0.062887
A   31
0.069673
A   32
0.065154
A   33
0.083710
A   34
0.080724
A   35
0.130597
A   36
0.125780
A   37
0.089461
A   38
0.090146
A   39
0.078320
A   40
0.056612
A   41
0.068837
A   42
0.072002
A   43
0.092382
A   44
0.084311
A   45
0.105647
A   46
0.098408
A   47
0.101722
A   48
0.107693
A   49
0.083866
A   50
0.074616
M  END
$$$$
