
     RDKit          3D

 29 29  0  0  0  0  0  0  0  0999 V2000
    0.1478    2.7218   -2.8695 O   0  0  0  0  0  0  0  0  0  0  0  0
    0.2876    1.3031   -3.1551 P   0  0  0  0  0  0  0  0  0  0  0  0
   -1.0108    0.5707   -3.7097 O   0  0  0  0  0  0  0  0  0  0  0  0
    1.4758    0.8476   -4.1007 O   0  0  0  0  0  0  0  0  0  0  0  0
    0.6038   -0.0186   -1.7490 C   0  0  0  0  0  0  0  0  0  0  0  0
    0.8650   -1.2457   -2.3816 O   0  0  0  0  0  0  0  0  0  0  0  0
   -0.7907   -0.3066   -1.0363 C   0  0  0  0  0  0  0  0  0  0  0  0
   -0.6234   -1.2158    0.1235 N   0  0  0  0  0  0  0  0  0  0  0  0
   -0.7827   -0.7367    1.3924 C   0  0  0  0  0  0  0  0  0  0  0  0
   -0.5597   -1.5678    2.4869 C   0  0  0  0  0  0  0  0  0  0  0  0
   -0.1670   -2.8909    2.2868 C   0  0  0  0  0  0  0  0  0  0  0  0
   -0.0190   -3.3636    0.9846 C   0  0  0  0  0  0  0  0  0  0  0  0
   -0.2457   -2.5100   -0.0932 C   0  0  0  0  0  0  0  0  0  0  0  0
    2.0218    0.2035   -0.4298 P   0  0  0  0  0  0  0  0  0  0  0  0
    3.3335    0.7601   -0.7301 O   0  0  0  0  0  0  0  0  0  0  0  0
    2.0183   -1.3070    0.0840 O   0  0  0  0  0  0  0  0  0  0  0  0
    1.1395    0.9659    0.6592 O   0  0  0  0  0  0  0  0  0  0  0  0
   -1.3938    1.0851   -4.5110 H   0  0  0  0  0  0  0  0  0  0  0  0
    1.6634    1.5742   -4.8062 H   0  0  0  0  0  0  0  0  0  0  0  0
    1.6445   -1.2483   -3.0137 H   0  0  0  0  0  0  0  0  0  0  0  0
   -1.3022    0.6355   -0.6988 H   0  0  0  0  0  0  0  0  0  0  0  0
   -1.4879   -0.8117   -1.7655 H   0  0  0  0  0  0  0  0  0  0  0  0
   -1.0821    0.3200    1.5177 H   0  0  0  0  0  0  0  0  0  0  0  0
   -0.6843   -1.1697    3.4991 H   0  0  0  0  0  0  0  0  0  0  0  0
    0.0251   -3.5486    3.1423 H   0  0  0  0  0  0  0  0  0  0  0  0
    0.2853   -4.3985    0.7954 H   0  0  0  0  0  0  0  0  0  0  0  0
   -0.1209   -2.8457   -1.1413 H   0  0  0  0  0  0  0  0  0  0  0  0
    2.8793   -1.5044    0.6063 H   0  0  0  0  0  0  0  0  0  0  0  0
    1.7271    1.4934    1.3101 H   0  0  0  0  0  0  0  0  0  0  0  0
  1  2  2  0
  2  3  1  0
  2  4  1  0
  2  5  1  0
  5  6  1  0
  5  7  1  0
  7  8  1  0
  8  9  2  0
  9 10  1  0
 10 11  2  0
 11 12  1  0
 12 13  2  0
  5 14  1  0
 14 15  2  0
 14 16  1  0
 14 17  1  0
 13  8  1  0
  3 18  1  0
  4 19  1  0
  6 20  1  0
  7 21  1  0
  7 22  1  0
  9 23  1  0
 10 24  1  0
 11 25  1  0
 12 26  1  0
 13 27  1  0
 16 28  1  0
 17 29  1  0
M  CHG  1   8   1
A    1
-0.775051
A    2
1.304911
A    3
-0.662843
A    4
-0.669662
A    5
-0.183260
A    6
-0.476124
A    7
-0.074913
A    8
0.069363
A    9
0.079126
A   10
-0.123318
A   11
0.018729
A   12
-0.120425
A   13
0.099523
A   14
1.294216
A   15
-0.765941
A   16
-0.665940
A   17
-0.666627
A   18
0.471300
A   19
0.480872
A   20
0.407758
A   21
0.132303
A   22
0.148220
A   23
0.149800
A   24
0.153845
A   25
0.141168
A   26
0.152737
A   27
0.146218
A   28
0.468426
A   29
0.465591
M  END
$$$$
