
     RDKit          3D

 41 42  0  0  0  0  0  0  0  0999 V2000
   -2.1260   -3.4988    0.0356 S   0  0  0  0  0  0  0  0  0  0  0  0
   -2.4899   -4.1106    1.2855 O   0  0  0  0  0  0  0  0  0  0  0  0
   -2.2680   -4.2132   -1.2044 O   0  0  0  0  0  0  0  0  0  0  0  0
   -2.7928   -1.8913   -0.0791 N   0  0  0  0  0  0  0  0  0  0  0  0
   -1.8506   -0.9734   -0.0414 C   0  0  0  0  0  0  0  0  0  0  0  0
   -2.1531    0.3571   -0.2310 N   0  0  0  0  0  0  0  0  0  0  0  0
   -1.4241    1.3850    0.5387 C   0  0  0  0  0  0  0  0  0  0  0  0
   -0.6591    2.3342   -0.3893 C   0  0  0  0  0  0  0  0  0  0  0  0
   -3.5835    0.6582   -0.4987 C   0  0  0  0  0  0  0  0  0  0  0  0
   -3.7446    1.9738   -1.2594 C   0  0  0  0  0  0  0  0  0  0  0  0
   -0.4401   -1.5177    0.0888 C   0  0  0  0  0  0  0  0  0  0  0  0
    0.7586   -0.6934    0.0619 C   0  0  0  0  0  0  0  0  0  0  0  0
    1.4410   -0.3958    1.2419 C   0  0  0  0  0  0  0  0  0  0  0  0
    2.6053    0.3684    1.2112 C   0  0  0  0  0  0  0  0  0  0  0  0
    3.0793    0.8150   -0.0222 C   0  0  0  0  0  0  0  0  0  0  0  0
    4.1913    1.5698   -0.2166 O   0  0  0  0  0  0  0  0  0  0  0  0
    4.9444    1.9295    0.9336 C   0  0  0  0  0  0  0  0  0  0  0  0
    2.4167    0.5076   -1.2232 C   0  0  0  0  0  0  0  0  0  0  0  0
    1.2573   -0.2483   -1.1711 C   0  0  0  0  0  0  0  0  0  0  0  0
   -0.4306   -2.8594    0.1544 C   0  0  0  0  0  0  0  0  0  0  0  0
    0.7194   -3.7601    0.2686 C   0  0  0  0  0  0  0  0  0  0  0  0
   -0.7178    0.9074    1.2540 H   0  0  0  0  0  0  0  0  0  0  0  0
   -2.1430    1.9625    1.1648 H   0  0  0  0  0  0  0  0  0  0  0  0
    0.1143    2.8810    0.1616 H   0  0  0  0  0  0  0  0  0  0  0  0
   -0.1584    1.7844   -1.1978 H   0  0  0  0  0  0  0  0  0  0  0  0
   -1.3167    3.0686   -0.8647 H   0  0  0  0  0  0  0  0  0  0  0  0
   -4.0109   -0.1769   -1.1137 H   0  0  0  0  0  0  0  0  0  0  0  0
   -4.1623    0.6701    0.4509 H   0  0  0  0  0  0  0  0  0  0  0  0
   -3.5354    2.8476   -0.6344 H   0  0  0  0  0  0  0  0  0  0  0  0
   -3.0742    2.0129   -2.1283 H   0  0  0  0  0  0  0  0  0  0  0  0
   -4.7708    2.0756   -1.6332 H   0  0  0  0  0  0  0  0  0  0  0  0
    1.0622   -0.7649    2.1960 H   0  0  0  0  0  0  0  0  0  0  0  0
    3.1239    0.5993    2.1351 H   0  0  0  0  0  0  0  0  0  0  0  0
    5.3428    1.0416    1.4342 H   0  0  0  0  0  0  0  0  0  0  0  0
    4.3487    2.5432    1.6160 H   0  0  0  0  0  0  0  0  0  0  0  0
    5.7611    2.5221    0.4978 H   0  0  0  0  0  0  0  0  0  0  0  0
    2.8223    0.8629   -2.1680 H   0  0  0  0  0  0  0  0  0  0  0  0
    0.7259   -0.5029   -2.0906 H   0  0  0  0  0  0  0  0  0  0  0  0
    1.6777   -3.2181    0.3383 H   0  0  0  0  0  0  0  0  0  0  0  0
    0.6555   -4.4064    1.1630 H   0  0  0  0  0  0  0  0  0  0  0  0
    0.8041   -4.4344   -0.6043 H   0  0  0  0  0  0  0  0  0  0  0  0
  1  2  2  0
  1  3  2  0
  1  4  1  0
  4  5  2  0
  5  6  1  0
  6  7  1  0
  7  8  1  0
  6  9  1  0
  9 10  1  0
  5 11  1  0
 11 12  1  0
 12 13  2  0
 13 14  1  0
 14 15  2  0
 15 16  1  0
 16 17  1  0
 15 18  1  0
 18 19  2  0
 11 20  2  0
 20 21  1  0
 20  1  1  0
 19 12  1  0
  7 22  1  0
  7 23  1  0
  8 24  1  0
  8 25  1  0
  8 26  1  0
  9 27  1  0
  9 28  1  0
 10 29  1  0
 10 30  1  0
 10 31  1  0
 13 32  1  0
 14 33  1  0
 17 34  1  0
 17 35  1  0
 17 36  1  0
 18 37  1  0
 19 38  1  0
 21 39  1  0
 21 40  1  0
 21 41  1  0
A    1
1.155727
A    2
-0.562333
A    3
-0.560969
A    4
-0.615330
A    5
0.340324
A    6
-0.110298
A    7
0.020644
A    8
-0.359476
A    9
0.023619
A   10
-0.354448
A   11
-0.076324
A   12
0.050371
A   13
-0.101700
A   14
-0.236110
A   15
0.264990
A   16
-0.215464
A   17
-0.132645
A   18
-0.207594
A   19
-0.099394
A   20
-0.033445
A   21
-0.339363
A   22
0.067413
A   23
0.077938
A   24
0.112488
A   25
0.103719
A   26
0.103770
A   27
0.086751
A   28
0.065938
A   29
0.105447
A   30
0.116205
A   31
0.120508
A   32
0.112561
A   33
0.121665
A   34
0.097137
A   35
0.096365
A   36
0.110751
A   37
0.130860
A   38
0.114010
A   39
0.128662
A   40
0.138593
A   41
0.138438
M  END
$$$$
