
     RDKit          3D

 53 56  0  0  0  0  0  0  0  0999 V2000
   -1.3890    3.4777   -2.3765 O   0  0  0  0  0  0  0  0  0  0  0  0
   -0.9553    2.3872   -2.1513 C   0  0  0  0  0  0  0  0  0  0  0  0
    0.3077    2.0611   -2.5695 O   0  0  0  0  0  0  0  0  0  0  0  0
    0.6765    0.7230   -2.1834 C   0  0  0  0  0  0  0  0  0  0  0  0
    1.7082    0.8751   -1.1143 C   0  0  0  0  0  0  0  0  0  0  0  0
    2.6131   -0.0567   -0.8057 C   0  0  0  0  0  0  0  0  0  0  0  0
    3.6409    0.1546    0.2285 C   0  0  0  0  0  0  0  0  0  0  0  0
    3.4599    1.2687    1.1134 O   0  0  0  0  0  0  0  0  0  0  0  0
    3.3598   -0.0360    1.6929 C   0  0  0  0  0  0  0  0  0  0  0  0
    4.4917   -0.4123    2.6080 C   0  0  0  0  0  0  0  0  0  0  0  0
    1.9874   -0.4132    2.1742 C   0  0  0  0  0  0  0  0  0  0  0  0
   -0.6528    0.0265   -1.7469 C   0  0  0  0  0  0  0  0  0  0  0  0
   -1.6224    1.2023   -1.4707 C   0  0  0  0  0  0  0  0  0  0  0  0
   -1.8984    1.5435   -0.0343 C   0  0  0  0  0  0  0  0  0  0  0  0
   -0.9484    1.9181    0.8253 C   0  0  0  0  0  0  0  0  0  0  0  0
   -3.3443    1.5170    0.3707 C   0  0  0  0  0  0  0  0  0  0  0  0
   -3.9630    0.1177    0.2798 C   0  0  0  0  0  0  0  0  0  0  0  0
   -3.3510   -0.8125    1.2953 C   0  0  0  0  0  0  0  0  0  0  0  0
   -3.6130   -2.2043    1.0819 O   0  0  0  0  0  0  0  0  0  0  0  0
   -2.2487   -1.7753    0.9684 C   0  0  0  0  0  0  0  0  0  0  0  0
   -1.6732   -1.8912   -0.4233 C   0  0  0  0  0  0  0  0  0  0  0  0
   -0.4598   -0.9682   -0.6071 C   0  0  0  0  0  0  0  0  0  0  0  0
   -1.3592   -2.2507    2.0869 C   0  0  0  0  0  0  0  0  0  0  0  0
    1.2364    0.0901   -3.4751 C   0  0  0  0  0  0  0  0  0  0  0  0
    2.5893    0.4209   -3.6635 O   0  0  0  0  0  0  0  0  0  0  0  0
    1.6985    1.8476   -0.6084 H   0  0  0  0  0  0  0  0  0  0  0  0
    2.6794   -1.0149   -1.3235 H   0  0  0  0  0  0  0  0  0  0  0  0
    4.6715    0.0509   -0.1387 H   0  0  0  0  0  0  0  0  0  0  0  0
    4.6115   -1.5011    2.6674 H   0  0  0  0  0  0  0  0  0  0  0  0
    5.4491    0.0129    2.2747 H   0  0  0  0  0  0  0  0  0  0  0  0
    4.3246   -0.0374    3.6273 H   0  0  0  0  0  0  0  0  0  0  0  0
    1.2076    0.1545    1.6421 H   0  0  0  0  0  0  0  0  0  0  0  0
    1.8603   -0.1953    3.2429 H   0  0  0  0  0  0  0  0  0  0  0  0
    1.7933   -1.4823    2.0230 H   0  0  0  0  0  0  0  0  0  0  0  0
   -1.0523   -0.5369   -2.6285 H   0  0  0  0  0  0  0  0  0  0  0  0
   -2.5914    1.0007   -1.9974 H   0  0  0  0  0  0  0  0  0  0  0  0
    0.0978    2.0047    0.5749 H   0  0  0  0  0  0  0  0  0  0  0  0
   -1.1426    2.1857    1.8520 H   0  0  0  0  0  0  0  0  0  0  0  0
   -3.9171    2.2224   -0.2720 H   0  0  0  0  0  0  0  0  0  0  0  0
   -3.4691    1.9109    1.4016 H   0  0  0  0  0  0  0  0  0  0  0  0
   -5.0583    0.1765    0.4588 H   0  0  0  0  0  0  0  0  0  0  0  0
   -3.8674   -0.2924   -0.7445 H   0  0  0  0  0  0  0  0  0  0  0  0
   -3.4775   -0.4933    2.3359 H   0  0  0  0  0  0  0  0  0  0  0  0
   -2.4582   -1.6804   -1.1771 H   0  0  0  0  0  0  0  0  0  0  0  0
   -1.3890   -2.9462   -0.6135 H   0  0  0  0  0  0  0  0  0  0  0  0
   -0.2399   -0.4275    0.3370 H   0  0  0  0  0  0  0  0  0  0  0  0
    0.4426   -1.5832   -0.7995 H   0  0  0  0  0  0  0  0  0  0  0  0
   -0.6838   -1.4546    2.4251 H   0  0  0  0  0  0  0  0  0  0  0  0
   -1.9508   -2.5752    2.9560 H   0  0  0  0  0  0  0  0  0  0  0  0
   -0.7461   -3.1094    1.7859 H   0  0  0  0  0  0  0  0  0  0  0  0
    1.2495   -1.0144   -3.4173 H   0  0  0  0  0  0  0  0  0  0  0  0
    0.6576    0.4167   -4.3600 H   0  0  0  0  0  0  0  0  0  0  0  0
    2.7083    1.3971   -3.6291 H   0  0  0  0  0  0  0  0  0  0  0  0
  1  2  2  0
  2  3  1  0
  3  4  1  0
  4  5  1  0
  5  6  2  0
  6  7  1  0
  7  8  1  0
  8  9  1  0
  9 10  1  0
  9 11  1  0
  4 12  1  0
 12 13  1  0
 13 14  1  0
 14 15  2  3
 14 16  1  0
 16 17  1  0
 17 18  1  0
 18 19  1  0
 19 20  1  0
 20 21  1  0
 21 22  1  0
 20 23  1  0
  4 24  1  0
 24 25  1  0
 13  2  1  0
  9  7  1  0
 22 12  1  0
 20 18  1  0
  5 26  1  0
  6 27  1  0
  7 28  1  0
 10 29  1  0
 10 30  1  0
 10 31  1  0
 11 32  1  0
 11 33  1  0
 11 34  1  0
 12 35  1  0
 13 36  1  0
 15 37  1  0
 15 38  1  0
 16 39  1  0
 16 40  1  0
 17 41  1  0
 17 42  1  0
 18 43  1  0
 21 44  1  0
 21 45  1  0
 22 46  1  0
 22 47  1  0
 23 48  1  0
 23 49  1  0
 23 50  1  0
 24 51  1  0
 24 52  1  0
 25 53  1  0
A    1
-0.525936
A    2
0.609376
A    3
-0.329039
A    4
0.228411
A    5
-0.187045
A    6
-0.094803
A    7
0.056365
A    8
-0.340366
A    9
0.337416
A   10
-0.423163
A   11
-0.415167
A   12
-0.060506
A   13
-0.186197
A   14
0.170540
A   15
-0.379280
A   16
-0.176404
A   17
-0.163343
A   18
0.071617
A   19
-0.362530
A   20
0.273597
A   21
-0.198024
A   22
-0.138722
A   23
-0.411011
A   24
0.028901
A   25
-0.525496
A   26
0.111927
A   27
0.111060
A   28
0.084141
A   29
0.126932
A   30
0.124756
A   31
0.123428
A   32
0.110921
A   33
0.126669
A   34
0.126381
A   35
0.076528
A   36
0.112360
A   37
0.129487
A   38
0.142554
A   39
0.094367
A   40
0.088745
A   41
0.091819
A   42
0.082669
A   43
0.070305
A   44
0.086041
A   45
0.092700
A   46
0.058537
A   47
0.074767
A   48
0.119560
A   49
0.127791
A   50
0.122026
A   51
0.082382
A   52
0.069870
A   53
0.372087
M  END
$$$$
