
     RDKit          3D

 36 37  0  0  0  0  0  0  0  0999 V2000
   -4.4765    0.4956    0.9701 C   0  0  0  0  0  0  0  0  0  0  0  0
   -3.8343    0.5927   -0.3628 C   0  0  0  0  0  0  0  0  0  0  0  0
   -2.5001    0.4241   -0.5489 C   0  0  0  0  0  0  0  0  0  0  0  0
   -1.9364    0.4834   -1.8174 N   0  0  0  0  0  0  0  0  0  0  0  0
   -0.4638    0.4138   -1.9553 C   0  0  0  0  0  0  0  0  0  0  0  0
    0.0097   -0.9712   -1.6231 C   0  0  0  0  0  0  0  0  0  0  0  0
    0.7732   -1.2230   -0.5598 C   0  0  0  0  0  0  0  0  0  0  0  0
    1.1523   -0.1169    0.3765 C   0  0  0  0  0  0  0  0  0  0  0  0
    2.4920   -0.3721    0.7922 O   0  0  0  0  0  0  0  0  0  0  0  0
    2.7502   -0.1650    2.1691 C   0  0  0  0  0  0  0  0  0  0  0  0
    3.0585   -1.8360    2.8861 P   0  0  0  0  0  0  0  0  0  0  0  0
    2.4301   -2.2279    4.1532 O   0  0  0  0  0  0  0  0  0  0  0  0
    4.6585   -1.8175    2.9338 O   0  0  0  0  0  0  0  0  0  0  0  0
    2.6976   -2.9302    1.7737 O   0  0  0  0  0  0  0  0  0  0  0  0
    1.1907    1.2142   -0.3979 C   0  0  0  0  0  0  0  0  0  0  0  0
   -0.0397    1.4282   -1.0570 O   0  0  0  0  0  0  0  0  0  0  0  0
   -2.7011    0.8158   -2.9505 C   0  0  0  0  0  0  0  0  0  0  0  0
   -2.1902    0.9198   -4.0508 O   0  0  0  0  0  0  0  0  0  0  0  0
   -4.0703    0.9787   -2.7561 N   0  0  0  0  0  0  0  0  0  0  0  0
   -4.7063    0.8789   -1.4925 C   0  0  0  0  0  0  0  0  0  0  0  0
   -5.9079    1.0471   -1.4723 O   0  0  0  0  0  0  0  0  0  0  0  0
   -5.0739   -0.4280    1.0625 H   0  0  0  0  0  0  0  0  0  0  0  0
   -5.1728    1.3337    1.1460 H   0  0  0  0  0  0  0  0  0  0  0  0
   -3.7534    0.4999    1.7976 H   0  0  0  0  0  0  0  0  0  0  0  0
   -1.7990    0.2253    0.2762 H   0  0  0  0  0  0  0  0  0  0  0  0
   -0.1528    0.7444   -2.9866 H   0  0  0  0  0  0  0  0  0  0  0  0
   -0.3106   -1.7443   -2.3237 H   0  0  0  0  0  0  0  0  0  0  0  0
    1.1503   -2.2172   -0.3159 H   0  0  0  0  0  0  0  0  0  0  0  0
    0.4373   -0.0677    1.2320 H   0  0  0  0  0  0  0  0  0  0  0  0
    1.9263    0.3659    2.7200 H   0  0  0  0  0  0  0  0  0  0  0  0
    3.6773    0.4817    2.1925 H   0  0  0  0  0  0  0  0  0  0  0  0
    5.0080   -2.6487    3.4197 H   0  0  0  0  0  0  0  0  0  0  0  0
    2.9956   -2.5857    0.8484 H   0  0  0  0  0  0  0  0  0  0  0  0
    2.0183    1.2356   -1.1293 H   0  0  0  0  0  0  0  0  0  0  0  0
    1.2637    2.0951    0.2671 H   0  0  0  0  0  0  0  0  0  0  0  0
   -4.6436    1.2004   -3.5829 H   0  0  0  0  0  0  0  0  0  0  0  0
  1  2  1  0
  2  3  2  0
  3  4  1  0
  4  5  1  0
  5  6  1  0
  6  7  2  0
  7  8  1  0
  8  9  1  0
  9 10  1  0
 10 11  1  0
 11 12  2  0
 11 13  1  0
 11 14  1  0
  8 15  1  0
 15 16  1  0
  4 17  1  0
 17 18  2  0
 17 19  1  0
 19 20  1  0
 20 21  2  0
 20  2  1  0
 16  5  1  0
  1 22  1  0
  1 23  1  0
  1 24  1  0
  3 25  1  0
  5 26  1  0
  6 27  1  0
  7 28  1  0
  8 29  1  0
 10 30  1  0
 10 31  1  0
 13 32  1  0
 14 33  1  0
 15 34  1  0
 15 35  1  0
 19 36  1  0
A    1
-0.345574
A    2
-0.077096
A    3
0.034233
A    4
-0.206749
A    5
0.295202
A    6
-0.193871
A    7
-0.137547
A    8
0.150909
A    9
-0.257565
A   10
-0.254908
A   11
1.363226
A   12
-0.830872
A   13
-0.704500
A   14
-0.672609
A   15
-0.000176
A   16
-0.311597
A   17
0.652687
A   18
-0.616575
A   19
-0.472614
A   20
0.547126
A   21
-0.575412
A   22
0.121810
A   23
0.120002
A   24
0.129975
A   25
0.121966
A   26
0.074706
A   27
0.143729
A   28
0.121662
A   29
0.070951
A   30
0.139398
A   31
0.146270
A   32
0.464141
A   33
0.430720
A   34
0.078537
A   35
0.096432
A   36
0.353984
M  END
$$$$
