
     RDKit          3D

 48 48  0  0  0  0  0  0  0  0999 V2000
    1.2121   -3.5935    1.7258 O   0  0  0  0  0  0  0  0  0  0  0  0
    0.3500   -2.7554    1.8009 C   0  0  0  0  0  0  0  0  0  0  0  0
    0.2439   -1.6983    0.8393 N   0  0  0  0  0  0  0  0  0  0  0  0
    1.3091   -1.7320   -0.0992 N   0  0  0  0  0  0  0  0  0  0  0  0
    1.2456   -0.5635   -1.0042 C   0  0  0  0  0  0  0  0  0  0  0  0
   -0.0513   -0.5675   -1.7594 N   0  0  0  0  0  0  0  0  0  0  0  0
   -0.9896   -1.4788   -1.2304 N   0  0  0  0  0  0  0  0  0  0  0  0
   -1.1181   -1.4421    0.2562 C   0  0  0  0  0  0  0  0  0  0  0  0
   -1.6482   -0.1257    0.8567 C   0  0  0  0  0  0  0  0  0  0  0  0
   -3.0914    0.1364    0.4208 C   0  0  0  0  0  0  0  0  0  0  0  0
   -3.6501    1.3709    1.1419 C   0  0  0  0  0  0  0  0  0  0  0  0
   -5.0674    1.6797    0.6602 C   0  0  0  0  0  0  0  0  0  0  0  0
   -0.5400    0.5417   -2.4752 C   0  0  0  0  0  0  0  0  0  0  0  0
   -1.7403    0.6753   -2.6105 O   0  0  0  0  0  0  0  0  0  0  0  0
    0.4645    1.4038   -3.1737 C   0  0  0  0  0  0  0  0  0  0  0  0
    1.4997    0.7406   -0.2091 C   0  0  0  0  0  0  0  0  0  0  0  0
    2.9041    1.2880   -0.4840 C   0  0  0  0  0  0  0  0  0  0  0  0
    3.9776    0.4163    0.1820 C   0  0  0  0  0  0  0  0  0  0  0  0
    5.3799    0.8936   -0.1913 C   0  0  0  0  0  0  0  0  0  0  0  0
   -0.6138   -2.6581    2.9470 C   0  0  0  0  0  0  0  0  0  0  0  0
    1.2924   -2.6184   -0.6386 H   0  0  0  0  0  0  0  0  0  0  0  0
    2.0499   -0.7149   -1.7840 H   0  0  0  0  0  0  0  0  0  0  0  0
   -1.9107   -1.3023   -1.6776 H   0  0  0  0  0  0  0  0  0  0  0  0
   -1.8223   -2.2861    0.5018 H   0  0  0  0  0  0  0  0  0  0  0  0
   -1.0026    0.7220    0.5603 H   0  0  0  0  0  0  0  0  0  0  0  0
   -1.5782   -0.1675    1.9606 H   0  0  0  0  0  0  0  0  0  0  0  0
   -3.7311   -0.7409    0.6253 H   0  0  0  0  0  0  0  0  0  0  0  0
   -3.1369    0.3041   -0.6769 H   0  0  0  0  0  0  0  0  0  0  0  0
   -2.9934    2.2431    0.9590 H   0  0  0  0  0  0  0  0  0  0  0  0
   -3.6471    1.2085    2.2357 H   0  0  0  0  0  0  0  0  0  0  0  0
   -5.0874    1.8746   -0.4195 H   0  0  0  0  0  0  0  0  0  0  0  0
   -5.7505    0.8463    0.8561 H   0  0  0  0  0  0  0  0  0  0  0  0
   -5.4733    2.5656    1.1601 H   0  0  0  0  0  0  0  0  0  0  0  0
    1.3332    0.8372   -3.5360 H   0  0  0  0  0  0  0  0  0  0  0  0
   -0.0036    1.8870   -4.0498 H   0  0  0  0  0  0  0  0  0  0  0  0
    0.8309    2.2099   -2.5220 H   0  0  0  0  0  0  0  0  0  0  0  0
    1.3921    0.5362    0.8806 H   0  0  0  0  0  0  0  0  0  0  0  0
    0.7386    1.5068   -0.4319 H   0  0  0  0  0  0  0  0  0  0  0  0
    2.9792    2.3236   -0.0993 H   0  0  0  0  0  0  0  0  0  0  0  0
    3.0918    1.3604   -1.5709 H   0  0  0  0  0  0  0  0  0  0  0  0
    3.8442   -0.6463   -0.1048 H   0  0  0  0  0  0  0  0  0  0  0  0
    3.8475    0.4306    1.2813 H   0  0  0  0  0  0  0  0  0  0  0  0
    5.5516    0.8346   -1.2712 H   0  0  0  0  0  0  0  0  0  0  0  0
    5.5475    1.9313    0.1152 H   0  0  0  0  0  0  0  0  0  0  0  0
    6.1471    0.2807    0.2959 H   0  0  0  0  0  0  0  0  0  0  0  0
   -0.3202   -3.3599    3.7457 H   0  0  0  0  0  0  0  0  0  0  0  0
   -0.6223   -1.6494    3.3859 H   0  0  0  0  0  0  0  0  0  0  0  0
   -1.6408   -2.9101    2.6534 H   0  0  0  0  0  0  0  0  0  0  0  0
  1  2  2  0
  2  3  1  0
  3  4  1  0
  4  5  1  0
  5  6  1  0
  6  7  1  0
  7  8  1  0
  8  9  1  0
  9 10  1  0
 10 11  1  0
 11 12  1  0
  6 13  1  0
 13 14  2  0
 13 15  1  0
  5 16  1  0
 16 17  1  0
 17 18  1  0
 18 19  1  0
  2 20  1  0
  8  3  1  0
  4 21  1  0
  5 22  1  0
  7 23  1  0
  8 24  1  0
  9 25  1  0
  9 26  1  0
 10 27  1  0
 10 28  1  0
 11 29  1  0
 11 30  1  0
 12 31  1  0
 12 32  1  0
 12 33  1  0
 15 34  1  0
 15 35  1  0
 15 36  1  0
 16 37  1  0
 16 38  1  0
 17 39  1  0
 17 40  1  0
 18 41  1  0
 18 42  1  0
 19 43  1  0
 19 44  1  0
 19 45  1  0
 20 46  1  0
 20 47  1  0
 20 48  1  0
A    1
-0.523508
A    2
0.576337
A    3
-0.162554
A    4
-0.327114
A    5
0.216075
A    6
-0.147894
A    7
-0.368115
A    8
0.211433
A    9
-0.223448
A   10
-0.126855
A   11
-0.070634
A   12
-0.326112
A   13
0.537450
A   14
-0.557369
A   15
-0.470316
A   16
-0.210177
A   17
-0.122821
A   18
-0.074997
A   19
-0.327714
A   20
-0.480904
A   21
0.241420
A   22
0.056388
A   23
0.270898
A   24
0.050190
A   25
0.084169
A   26
0.083104
A   27
0.065538
A   28
0.073684
A   29
0.066314
A   30
0.060048
A   31
0.100212
A   32
0.095286
A   33
0.093105
A   34
0.145738
A   35
0.152967
A   36
0.152469
A   37
0.095531
A   38
0.079116
A   39
0.073773
A   40
0.062341
A   41
0.064509
A   42
0.068361
A   43
0.096792
A   44
0.096902
A   45
0.096471
A   46
0.153683
A   47
0.149091
A   48
0.151137
M  END
$$$$
