
     RDKit          3D

 34 35  0  0  0  0  0  0  0  0999 V2000
    4.5141   -3.0421   -0.0887 Cl  0  0  0  0  0  0  0  0  0  0  0  0
    3.2845   -1.8464   -0.1084 C   0  0  0  0  0  0  0  0  0  0  0  0
    2.8571   -1.3570   -1.3350 C   0  0  0  0  0  0  0  0  0  0  0  0
    1.8523   -0.3923   -1.3451 C   0  0  0  0  0  0  0  0  0  0  0  0
    1.2997    0.0578   -0.1415 C   0  0  0  0  0  0  0  0  0  0  0  0
    0.2289    1.0460   -0.1621 C   0  0  0  0  0  0  0  0  0  0  0  0
    0.4972    2.4357   -0.3120 C   0  0  0  0  0  0  0  0  0  0  0  0
   -0.5010    3.3659   -0.3338 N   0  0  0  0  0  0  0  0  0  0  0  0
   -1.7762    2.8888   -0.2209 C   0  0  0  0  0  0  0  0  0  0  0  0
   -2.1253    1.5665   -0.0658 N   0  0  0  0  0  0  0  0  0  0  0  0
   -1.1171    0.6762   -0.0228 C   0  0  0  0  0  0  0  0  0  0  0  0
   -1.5101   -0.7395    0.1310 C   0  0  0  0  0  0  0  0  0  0  0  0
   -1.3912   -1.3346    1.2996 N   0  0  0  0  0  0  0  0  0  0  0  0
   -0.9483   -0.7680    2.3158 O   0  0  0  0  0  0  0  0  0  0  0  0
   -1.7600   -2.7505    1.4768 C   0  0  0  0  0  0  0  0  0  0  0  0
   -2.0536   -1.4226   -1.0728 C   0  0  0  0  0  0  0  0  0  0  0  0
   -2.7967    3.7979   -0.2832 N   0  0  0  0  0  0  0  0  0  0  0  0
    1.7648    2.9282   -0.4625 N   0  0  0  0  0  0  0  0  0  0  0  0
    1.7575   -0.4494    1.0795 C   0  0  0  0  0  0  0  0  0  0  0  0
    2.7607   -1.4146    1.1029 C   0  0  0  0  0  0  0  0  0  0  0  0
    3.2881   -1.7137   -2.2687 H   0  0  0  0  0  0  0  0  0  0  0  0
    1.4871    0.0088   -2.2898 H   0  0  0  0  0  0  0  0  0  0  0  0
   -1.6102   -3.0488    2.5333 H   0  0  0  0  0  0  0  0  0  0  0  0
   -1.1283   -3.3988    0.8456 H   0  0  0  0  0  0  0  0  0  0  0  0
   -2.8195   -2.9151    1.2189 H   0  0  0  0  0  0  0  0  0  0  0  0
   -3.1041   -1.7230   -0.9351 H   0  0  0  0  0  0  0  0  0  0  0  0
   -2.0442   -0.7502   -1.9481 H   0  0  0  0  0  0  0  0  0  0  0  0
   -1.4678   -2.3107   -1.3501 H   0  0  0  0  0  0  0  0  0  0  0  0
   -2.5929    4.7752   -0.3217 H   0  0  0  0  0  0  0  0  0  0  0  0
   -3.7369    3.4981   -0.1205 H   0  0  0  0  0  0  0  0  0  0  0  0
    2.5573    2.3295   -0.3631 H   0  0  0  0  0  0  0  0  0  0  0  0
    1.9137    3.9167   -0.5160 H   0  0  0  0  0  0  0  0  0  0  0  0
    1.3054   -0.0974    2.0127 H   0  0  0  0  0  0  0  0  0  0  0  0
    3.1149   -1.8166    2.0515 H   0  0  0  0  0  0  0  0  0  0  0  0
  1  2  1  0
  2  3  2  0
  3  4  1  0
  4  5  2  0
  5  6  1  0
  6  7  2  0
  7  8  1  0
  8  9  2  0
  9 10  1  0
 10 11  2  0
 11 12  1  0
 12 13  2  3
 13 14  1  0
 13 15  1  0
 12 16  1  0
  9 17  1  0
  7 18  1  0
  5 19  1  0
 19 20  2  0
 20  2  1  0
 11  6  1  0
  3 21  1  0
  4 22  1  0
 15 23  1  0
 15 24  1  0
 15 25  1  0
 16 26  1  0
 16 27  1  0
 16 28  1  0
 17 29  1  0
 17 30  1  0
 18 31  1  0
 18 32  1  0
 19 33  1  0
 20 34  1  0
M  CHG  2  13   1  14  -1
A    1
-0.151262
A    2
0.155269
A    3
-0.166716
A    4
-0.117998
A    5
0.079660
A    6
-0.236669
A    7
0.463888
A    8
-0.594389
A    9
0.618840
A   10
-0.552684
A   11
0.222913
A   12
0.077891
A   13
0.342583
A   14
-0.526191
A   15
-0.279854
A   16
-0.393482
A   17
-0.697249
A   18
-0.657387
A   19
-0.106016
A   20
-0.158243
A   21
0.126229
A   22
0.114738
A   23
0.143016
A   24
0.129491
A   25
0.131430
A   26
0.128896
A   27
0.143314
A   28
0.125520
A   29
0.355849
A   30
0.347415
A   31
0.336925
A   32
0.345647
A   33
0.121813
A   34
0.126813
M  END
$$$$
