
     RDKit          3D

 36 38  0  0  0  0  0  0  0  0999 V2000
    7.0845   -1.2712    0.0306 Cl  0  0  0  0  0  0  0  0  0  0  0  0
    5.4418   -0.8546    0.1267 C   0  0  0  0  0  0  0  0  0  0  0  0
    4.5678   -1.7190    0.7780 C   0  0  0  0  0  0  0  0  0  0  0  0
    3.2208   -1.3759    0.8515 C   0  0  0  0  0  0  0  0  0  0  0  0
    2.7758   -0.1778    0.2812 C   0  0  0  0  0  0  0  0  0  0  0  0
    3.6716    0.6764   -0.3745 C   0  0  0  0  0  0  0  0  0  0  0  0
    5.0181    0.3385   -0.4530 C   0  0  0  0  0  0  0  0  0  0  0  0
    1.3632    0.1909    0.3552 C   0  0  0  0  0  0  0  0  0  0  0  0
    0.3994   -0.7045   -0.1357 N   0  0  0  0  0  0  0  0  0  0  0  0
    0.7444   -1.8023   -0.5503 O   0  0  0  0  0  0  0  0  0  0  0  0
   -0.9543   -0.3403   -0.1427 C   0  0  0  0  0  0  0  0  0  0  0  0
   -1.3602    0.8811    0.3953 C   0  0  0  0  0  0  0  0  0  0  0  0
   -0.3751    1.6811    0.9316 N   0  0  0  0  0  0  0  0  0  0  0  0
   -0.7140    2.9686    1.3159 O   0  0  0  0  0  0  0  0  0  0  0  0
    0.9586    1.4027    0.8800 C   0  0  0  0  0  0  0  0  0  0  0  0
   -2.7612    1.3896    0.4491 C   0  0  0  0  0  0  0  0  0  0  0  0
   -3.7902    0.2844    0.7169 C   0  0  0  0  0  0  0  0  0  0  0  0
   -4.2328   -0.4098   -0.5740 C   0  0  0  0  0  0  0  0  0  0  0  0
   -3.0603   -0.7311   -1.5042 C   0  0  0  0  0  0  0  0  0  0  0  0
   -1.8783   -1.3483   -0.7532 C   0  0  0  0  0  0  0  0  0  0  0  0
    4.9224   -2.6542    1.2215 H   0  0  0  0  0  0  0  0  0  0  0  0
    2.5180   -2.0462    1.3498 H   0  0  0  0  0  0  0  0  0  0  0  0
    3.3186    1.5983   -0.8374 H   0  0  0  0  0  0  0  0  0  0  0  0
    5.7234    0.9982   -0.9664 H   0  0  0  0  0  0  0  0  0  0  0  0
   -0.8583    2.9338    2.3265 H   0  0  0  0  0  0  0  0  0  0  0  0
    1.6781    2.1459    1.2742 H   0  0  0  0  0  0  0  0  0  0  0  0
   -2.8846    2.1921    1.2121 H   0  0  0  0  0  0  0  0  0  0  0  0
   -3.0055    1.9040   -0.5173 H   0  0  0  0  0  0  0  0  0  0  0  0
   -4.6801    0.7214    1.2205 H   0  0  0  0  0  0  0  0  0  0  0  0
   -3.3914   -0.4541    1.4389 H   0  0  0  0  0  0  0  0  0  0  0  0
   -4.9707    0.2199   -1.1135 H   0  0  0  0  0  0  0  0  0  0  0  0
   -4.7825   -1.3409   -0.3199 H   0  0  0  0  0  0  0  0  0  0  0  0
   -2.7402    0.1685   -2.0630 H   0  0  0  0  0  0  0  0  0  0  0  0
   -3.4046   -1.4396   -2.2910 H   0  0  0  0  0  0  0  0  0  0  0  0
   -2.2455   -2.0491    0.0344 H   0  0  0  0  0  0  0  0  0  0  0  0
   -1.3168   -2.0122   -1.4612 H   0  0  0  0  0  0  0  0  0  0  0  0
  1  2  1  0
  2  3  2  0
  3  4  1  0
  4  5  2  0
  5  6  1  0
  6  7  2  0
  5  8  1  0
  8  9  1  0
  9 10  2  0
  9 11  1  0
 11 12  2  0
 12 13  1  0
 13 14  1  0
 13 15  1  0
 12 16  1  0
 16 17  1  0
 17 18  1  0
 18 19  1  0
 19 20  1  0
  7  2  1  0
  8 15  2  0
 20 11  1  0
  3 21  1  0
  4 22  1  0
  6 23  1  0
  7 24  1  0
 14 25  1  0
 15 26  1  0
 16 27  1  0
 16 28  1  0
 17 29  1  0
 17 30  1  0
 18 31  1  0
 18 32  1  0
 19 33  1  0
 19 34  1  0
 20 35  1  0
 20 36  1  0
M  CHG  1   9   1
A    1
-0.103933
A    2
0.171553
A    3
-0.146767
A    4
-0.088469
A    5
0.012582
A    6
-0.099776
A    7
-0.146736
A    8
0.061543
A    9
0.311300
A   10
-0.337761
A   11
0.060486
A   12
0.131829
A   13
0.223368
A   14
-0.378435
A   15
-0.061710
A   16
-0.187667
A   17
-0.113578
A   18
-0.139635
A   19
-0.117792
A   20
-0.179042
A   21
0.142064
A   22
0.128069
A   23
0.123103
A   24
0.137431
A   25
0.420906
A   26
0.183784
A   27
0.115164
A   28
0.131039
A   29
0.095716
A   30
0.077615
A   31
0.080495
A   32
0.081538
A   33
0.075992
A   34
0.097068
A   35
0.119964
A   36
0.118693
M  END
$$$$
