
     RDKit          3D

 48 51  0  0  0  0  0  0  0  0999 V2000
   -5.4759   -1.1810   -2.8053 O   0  0  0  0  0  0  0  0  0  0  0  0
   -4.6271   -0.6710   -2.1089 C   0  0  0  0  0  0  0  0  0  0  0  0
   -4.2500   -1.2309   -0.8025 C   0  0  0  0  0  0  0  0  0  0  0  0
   -3.3029   -0.6779   -0.0332 C   0  0  0  0  0  0  0  0  0  0  0  0
   -2.5470    0.5732   -0.4218 C   0  0  1  0  0  0  0  0  0  0  0  0
   -1.0553    0.2909   -0.3759 C   0  0  0  0  0  0  0  0  0  0  0  0
   -0.2271    0.6660   -1.3631 C   0  0  0  0  0  0  0  0  0  0  0  0
    1.2700    0.5663   -1.3184 C   0  0  0  0  0  0  0  0  0  0  0  0
    1.7169    0.3970    0.1340 C   0  0  2  0  0  0  0  0  0  0  0  0
    3.1273   -0.0889    0.4204 C   0  0  0  0  0  0  0  0  0  0  0  0
    4.2734    0.4566   -0.3028 C   0  0  0  0  0  0  0  0  0  0  0  0
    4.3628    1.6192   -0.6249 O   0  0  0  0  0  0  0  0  0  0  0  0
    5.3722   -0.5176   -0.6849 C   0  0  0  0  0  0  0  0  0  0  0  0
    6.4706    0.1202   -1.2917 O   0  0  0  0  0  0  0  0  0  0  0  0
    3.1257   -0.9712    1.4359 C   0  0  0  0  0  0  0  0  0  0  0  0
    1.7228   -1.2888    1.8990 C   0  0  0  0  0  0  0  0  0  0  0  0
    0.8809   -0.7998    0.6990 C   0  0  1  0  0  0  0  0  0  0  0  0
   -0.5734   -0.3834    0.8944 C   0  0  2  0  0  0  0  0  0  0  0  0
   -1.4130   -1.6326    1.2150 C   0  0  0  0  0  0  0  0  0  0  0  0
   -2.9049   -1.2925    1.2718 C   0  0  0  0  0  0  0  0  0  0  0  0
    1.5363    1.7160    0.8971 C   0  0  0  0  0  0  0  0  0  0  0  0
   -2.9717    1.1100   -1.7663 C   0  0  0  0  0  0  0  0  0  0  0  0
   -3.9156    0.5537   -2.5289 C   0  0  0  0  0  0  0  0  0  0  0  0
   -2.8735    1.6978    0.5909 C   0  0  0  0  0  0  0  0  0  0  0  0
   -4.7908   -2.1317   -0.5162 H   0  0  0  0  0  0  0  0  0  0  0  0
   -0.5932    1.1039   -2.2917 H   0  0  0  0  0  0  0  0  0  0  0  0
    1.7332    1.4725   -1.7633 H   0  0  0  0  0  0  0  0  0  0  0  0
    1.6153   -0.2800   -1.9461 H   0  0  0  0  0  0  0  0  0  0  0  0
    5.0037   -1.2694   -1.4122 H   0  0  0  0  0  0  0  0  0  0  0  0
    5.7882   -1.0398    0.1987 H   0  0  0  0  0  0  0  0  0  0  0  0
    6.2608    1.0702   -1.4670 H   0  0  0  0  0  0  0  0  0  0  0  0
    3.9711   -1.4343    1.9130 H   0  0  0  0  0  0  0  0  0  0  0  0
    1.4754   -0.7470    2.8289 H   0  0  0  0  0  0  0  0  0  0  0  0
    1.5733   -2.3585    2.1098 H   0  0  0  0  0  0  0  0  0  0  0  0
    0.8979   -1.6192   -0.0672 H   0  0  0  0  0  0  0  0  0  0  0  0
   -0.6552    0.3416    1.7408 H   0  0  0  0  0  0  0  0  0  0  0  0
   -1.0816   -2.0715    2.1736 H   0  0  0  0  0  0  0  0  0  0  0  0
   -1.2406   -2.4115    0.4452 H   0  0  0  0  0  0  0  0  0  0  0  0
   -3.1188   -0.6009    2.1120 H   0  0  0  0  0  0  0  0  0  0  0  0
   -3.4947   -2.2059    1.4916 H   0  0  0  0  0  0  0  0  0  0  0  0
    2.2942    2.4475    0.5779 H   0  0  0  0  0  0  0  0  0  0  0  0
    1.6439    1.5805    1.9770 H   0  0  0  0  0  0  0  0  0  0  0  0
    0.5545    2.1638    0.7095 H   0  0  0  0  0  0  0  0  0  0  0  0
   -2.4642    2.0291   -2.0685 H   0  0  0  0  0  0  0  0  0  0  0  0
   -4.2214    0.9633   -3.4909 H   0  0  0  0  0  0  0  0  0  0  0  0
   -3.9438    1.9373    0.5774 H   0  0  0  0  0  0  0  0  0  0  0  0
   -2.6091    1.4157    1.6149 H   0  0  0  0  0  0  0  0  0  0  0  0
   -2.3189    2.6133    0.3535 H   0  0  0  0  0  0  0  0  0  0  0  0
  1  2  2  0
  2  3  1  0
  3  4  2  0
  4  5  1  0
  5  6  1  0
  6  7  2  0
  7  8  1  0
  8  9  1  0
  9 10  1  0
 10 11  1  0
 11 12  2  0
 11 13  1  0
 13 14  1  0
 10 15  2  0
 15 16  1  0
 16 17  1  0
 17 18  1  0
 18 19  1  0
 19 20  1  0
  9 21  1  1
  5 22  1  0
 22 23  2  0
  5 24  1  1
 23  2  1  0
 20  4  1  0
 18  6  1  0
 17  9  1  0
  3 25  1  0
  7 26  1  0
  8 27  1  0
  8 28  1  0
 13 29  1  0
 13 30  1  0
 14 31  1  0
 15 32  1  0
 16 33  1  0
 16 34  1  0
 17 35  1  6
 18 36  1  1
 19 37  1  0
 19 38  1  0
 20 39  1  0
 20 40  1  0
 21 41  1  0
 21 42  1  0
 21 43  1  0
 22 44  1  0
 23 45  1  0
 24 46  1  0
 24 47  1  0
 24 48  1  0
A    1
-0.517602
A    2
0.483746
A    3
-0.312541
A    4
0.135555
A    5
0.102425
A    6
0.002838
A    7
-0.144633
A    8
-0.174105
A    9
0.145980
A   10
-0.109495
A   11
0.427758
A   12
-0.454521
A   13
-0.018665
A   14
-0.527947
A   15
-0.081089
A   16
-0.168853
A   17
-0.046987
A   18
-0.030515
A   19
-0.142401
A   20
-0.178154
A   21
-0.382086
A   22
-0.057347
A   23
-0.239370
A   24
-0.369211
A   25
0.131038
A   26
0.095510
A   27
0.093939
A   28
0.088459
A   29
0.084613
A   30
0.091826
A   31
0.357681
A   32
0.113223
A   33
0.095815
A   34
0.095785
A   35
0.061340
A   36
0.065814
A   37
0.085836
A   38
0.079946
A   39
0.093618
A   40
0.095179
A   41
0.117697
A   42
0.110872
A   43
0.105942
A   44
0.103214
A   45
0.128336
A   46
0.122227
A   47
0.115805
A   48
0.123505
M  END
$$$$
