
     RDKit          3D

 38 39  0  0  0  0  0  0  0  0999 V2000
   -1.5988    2.8670   -0.3077 C   0  0  0  0  0  0  0  0  0  0  0  0
   -0.9115    1.6544    0.3149 C   0  0  0  0  0  0  0  0  0  0  0  0
   -1.0253    0.4166   -0.6028 C   0  0  1  0  0  0  0  0  0  0  0  0
   -0.2476    0.5380   -1.8507 N   0  0  0  0  0  0  0  0  0  0  0  0
    1.1550    0.0584   -1.8105 C   0  0  0  0  0  0  0  0  0  0  0  0
    2.1091    1.1373   -2.3579 C   0  0  0  0  0  0  0  0  0  0  0  0
    1.2289   -1.1948   -2.6984 C   0  0  0  0  0  0  0  0  0  0  0  0
    1.6123   -0.2844   -0.3767 C   0  0  0  0  0  0  0  0  0  0  0  0
    0.7163   -1.1362    0.3048 O   0  0  0  0  0  0  0  0  0  0  0  0
   -0.6569   -0.8863    0.1534 C   0  0  2  0  0  0  0  0  0  0  0  0
   -1.1897   -1.9392   -0.6171 O   0  0  0  0  0  0  0  0  0  0  0  0
   -1.2618   -0.9831    1.5422 C   0  0  0  0  0  0  0  0  0  0  0  0
   -2.6074   -1.3278    1.6698 C   0  0  0  0  0  0  0  0  0  0  0  0
   -3.1936   -1.4037    2.9323 C   0  0  0  0  0  0  0  0  0  0  0  0
   -2.4380   -1.1393    4.0744 C   0  0  0  0  0  0  0  0  0  0  0  0
   -1.0997   -0.8089    3.9115 C   0  0  0  0  0  0  0  0  0  0  0  0
   -0.1592   -0.4857    5.3113 Cl  0  0  0  0  0  0  0  0  0  0  0  0
   -0.4845   -0.7241    2.6708 C   0  0  0  0  0  0  0  0  0  0  0  0
   -2.6418    2.6495   -0.5710 H   0  0  0  0  0  0  0  0  0  0  0  0
   -1.6094    3.7144    0.3896 H   0  0  0  0  0  0  0  0  0  0  0  0
   -1.0945    3.2083   -1.2185 H   0  0  0  0  0  0  0  0  0  0  0  0
    0.1495    1.8820    0.5291 H   0  0  0  0  0  0  0  0  0  0  0  0
   -1.3746    1.4428    1.2997 H   0  0  0  0  0  0  0  0  0  0  0  0
   -2.1014    0.3072   -0.9307 H   0  0  0  0  0  0  0  0  0  0  0  0
   -0.3007    1.4988   -2.1992 H   0  0  0  0  0  0  0  0  0  0  0  0
    1.8454    1.4170   -3.3855 H   0  0  0  0  0  0  0  0  0  0  0  0
    3.1441    0.7765   -2.3815 H   0  0  0  0  0  0  0  0  0  0  0  0
    2.0905    2.0494   -1.7515 H   0  0  0  0  0  0  0  0  0  0  0  0
    0.5567   -1.9766   -2.3208 H   0  0  0  0  0  0  0  0  0  0  0  0
    0.9132   -0.9704   -3.7234 H   0  0  0  0  0  0  0  0  0  0  0  0
    2.2422   -1.6032   -2.7370 H   0  0  0  0  0  0  0  0  0  0  0  0
    2.5499   -0.8737   -0.3735 H   0  0  0  0  0  0  0  0  0  0  0  0
    1.7462    0.6205    0.2440 H   0  0  0  0  0  0  0  0  0  0  0  0
   -0.6226   -2.7421   -0.5572 H   0  0  0  0  0  0  0  0  0  0  0  0
   -3.1995   -1.5417    0.7756 H   0  0  0  0  0  0  0  0  0  0  0  0
   -4.2473   -1.6699    3.0282 H   0  0  0  0  0  0  0  0  0  0  0  0
   -2.8948   -1.1939    5.0631 H   0  0  0  0  0  0  0  0  0  0  0  0
    0.5732   -0.4669    2.5704 H   0  0  0  0  0  0  0  0  0  0  0  0
  1  2  1  0
  2  3  1  0
  3  4  1  0
  4  5  1  0
  5  6  1  0
  5  7  1  0
  5  8  1  0
  8  9  1  0
  9 10  1  0
 10 11  1  6
 10 12  1  0
 12 13  2  0
 13 14  1  0
 14 15  2  0
 15 16  1  0
 16 17  1  0
 16 18  2  0
 10  3  1  0
 18 12  1  0
  1 19  1  0
  1 20  1  0
  1 21  1  0
  2 22  1  0
  2 23  1  0
  3 24  1  6
  4 25  1  0
  6 26  1  0
  6 27  1  0
  6 28  1  0
  7 29  1  0
  7 30  1  0
  7 31  1  0
  8 32  1  0
  8 33  1  0
 11 34  1  0
 13 35  1  0
 14 36  1  0
 15 37  1  0
 18 38  1  0
A    1
-0.316200
A    2
-0.142774
A    3
0.056546
A    4
-0.480305
A    5
0.305299
A    6
-0.408883
A    7
-0.408264
A    8
-0.002700
A    9
-0.327584
A   10
0.423840
A   11
-0.603985
A   12
0.001163
A   13
-0.130081
A   14
-0.070999
A   15
-0.172869
A   16
0.161391
A   17
-0.149480
A   18
-0.189008
A   19
0.103163
A   20
0.105850
A   21
0.095786
A   22
0.073862
A   23
0.075104
A   24
0.067259
A   25
0.242780
A   26
0.122854
A   27
0.120184
A   28
0.110142
A   29
0.108069
A   30
0.112930
A   31
0.102582
A   32
0.086629
A   33
0.050681
A   34
0.397117
A   35
0.113485
A   36
0.110558
A   37
0.128399
A   38
0.127460
M  END
$$$$
