
     RDKit          3D

 44 46  0  0  0  0  0  0  0  0999 V2000
    0.0280    1.6272    0.3395 P   0  0  0  0  0  0  0  0  0  0  0  0
    1.3972    0.9247   -0.3500 N   0  0  0  0  0  0  0  0  0  0  0  0
    1.2532   -0.6540   -0.9236 P   0  0  0  0  0  0  0  0  0  0  0  0
   -0.2258   -1.4645   -0.9770 N   0  0  0  0  0  0  0  0  0  0  0  0
   -1.5409   -0.7422   -0.2057 P   0  0  0  0  0  0  0  0  0  0  0  0
   -1.4276    0.7945    0.4763 N   0  0  0  0  0  0  0  0  0  0  0  0
   -1.9492   -1.7170    1.1589 N   0  0  0  0  0  0  0  0  0  0  0  0
   -2.3377   -3.1498    0.9393 C   0  0  0  0  0  0  0  0  0  0  0  0
   -2.7696   -0.7315   -1.4103 N   0  0  0  0  0  0  0  0  0  0  0  0
   -4.1908   -0.5002   -0.9842 C   0  0  0  0  0  0  0  0  0  0  0  0
    2.3969   -1.5909   -0.0157 N   0  0  0  0  0  0  0  0  0  0  0  0
    2.1942   -3.0150    0.4099 C   0  0  0  0  0  0  0  0  0  0  0  0
    2.2617   -1.9166    1.4410 C   0  0  0  0  0  0  0  0  0  0  0  0
    1.8717   -0.7068   -2.5151 N   0  0  0  0  0  0  0  0  0  0  0  0
    3.1372    0.0609   -2.7963 C   0  0  0  0  0  0  0  0  0  0  0  0
   -0.3093    2.9991   -0.6290 N   0  0  0  0  0  0  0  0  0  0  0  0
    0.6537    4.1165   -0.9018 C   0  0  0  0  0  0  0  0  0  0  0  0
   -0.6341    4.3870   -0.1639 C   0  0  0  0  0  0  0  0  0  0  0  0
    0.4503    2.2444    1.8919 N   0  0  0  0  0  0  0  0  0  0  0  0
    1.1195    1.3080    2.8619 C   0  0  0  0  0  0  0  0  0  0  0  0
   -2.7152   -1.2401    1.7116 H   0  0  0  0  0  0  0  0  0  0  0  0
   -3.2798   -3.3249    0.3952 H   0  0  0  0  0  0  0  0  0  0  0  0
   -1.5298   -3.7082    0.4266 H   0  0  0  0  0  0  0  0  0  0  0  0
   -2.4431   -3.5934    1.9487 H   0  0  0  0  0  0  0  0  0  0  0  0
   -2.7227   -1.6267   -1.9742 H   0  0  0  0  0  0  0  0  0  0  0  0
   -4.6836   -1.3463   -0.4805 H   0  0  0  0  0  0  0  0  0  0  0  0
   -4.7482   -0.2890   -1.9186 H   0  0  0  0  0  0  0  0  0  0  0  0
   -4.2978    0.3940   -0.3394 H   0  0  0  0  0  0  0  0  0  0  0  0
    1.2614   -3.5631    0.2423 H   0  0  0  0  0  0  0  0  0  0  0  0
    3.0612   -3.6541    0.2211 H   0  0  0  0  0  0  0  0  0  0  0  0
    1.3795   -1.6617    2.0379 H   0  0  0  0  0  0  0  0  0  0  0  0
    3.1776   -1.7460    2.0154 H   0  0  0  0  0  0  0  0  0  0  0  0
    2.0340   -1.7229   -2.7838 H   0  0  0  0  0  0  0  0  0  0  0  0
    3.2713    0.0035   -3.8939 H   0  0  0  0  0  0  0  0  0  0  0  0
    4.0525   -0.3208   -2.3161 H   0  0  0  0  0  0  0  0  0  0  0  0
    3.0381    1.1339   -2.5354 H   0  0  0  0  0  0  0  0  0  0  0  0
    0.7476    4.3482   -1.9690 H   0  0  0  0  0  0  0  0  0  0  0  0
    1.6180    4.2246   -0.3999 H   0  0  0  0  0  0  0  0  0  0  0  0
   -0.6253    4.7009    0.8804 H   0  0  0  0  0  0  0  0  0  0  0  0
   -1.4931    4.8230   -0.6860 H   0  0  0  0  0  0  0  0  0  0  0  0
   -0.4334    2.6097    2.3582 H   0  0  0  0  0  0  0  0  0  0  0  0
    0.5222    0.4375    3.1848 H   0  0  0  0  0  0  0  0  0  0  0  0
    1.3462    1.9165    3.7577 H   0  0  0  0  0  0  0  0  0  0  0  0
    2.0841    0.9317    2.4708 H   0  0  0  0  0  0  0  0  0  0  0  0
  1  2  2  0
  2  3  1  0
  3  4  2  0
  4  5  1  0
  5  6  2  0
  5  7  1  0
  7  8  1  0
  5  9  1  0
  9 10  1  0
  3 11  1  0
 11 12  1  0
 12 13  1  0
  3 14  1  0
 14 15  1  0
  1 16  1  0
 16 17  1  0
 17 18  1  0
  1 19  1  0
 19 20  1  0
  6  1  1  0
 13 11  1  0
 18 16  1  0
  7 21  1  0
  8 22  1  0
  8 23  1  0
  8 24  1  0
  9 25  1  0
 10 26  1  0
 10 27  1  0
 10 28  1  0
 12 29  1  0
 12 30  1  0
 13 31  1  0
 13 32  1  0
 14 33  1  0
 15 34  1  0
 15 35  1  0
 15 36  1  0
 17 37  1  0
 17 38  1  0
 18 39  1  0
 18 40  1  0
 19 41  1  0
 20 42  1  0
 20 43  1  0
 20 44  1  0
A    1
1.201459
A    2
-0.889326
A    3
1.196217
A    4
-0.942274
A    5
1.209062
A    6
-0.949126
A    7
-0.556794
A    8
-0.142642
A    9
-0.553798
A   10
-0.144361
A   11
-0.422782
A   12
-0.082217
A   13
-0.078720
A   14
-0.543181
A   15
-0.137469
A   16
-0.397781
A   17
-0.080180
A   18
-0.085803
A   19
-0.560322
A   20
-0.138300
A   21
0.281071
A   22
0.076344
A   23
0.103603
A   24
0.096041
A   25
0.288147
A   26
0.077661
A   27
0.098092
A   28
0.109542
A   29
0.107895
A   30
0.098944
A   31
0.096599
A   32
0.099456
A   33
0.291472
A   34
0.092857
A   35
0.081637
A   36
0.110204
A   37
0.104307
A   38
0.107953
A   39
0.105215
A   40
0.103450
A   41
0.286634
A   42
0.082802
A   43
0.093545
A   44
0.104870
M  END
$$$$
