
     RDKit          3D

 36 38  0  0  0  0  0  0  0  0999 V2000
   -3.6835    0.8725   -0.5774 S   0  0  0  0  0  0  0  0  0  0  0  0
   -4.3130    0.1107   -1.8774 O   0  0  0  0  0  0  0  0  0  0  0  0
   -3.5149   -0.4297    0.5272 C   0  0  0  0  0  0  0  0  0  0  0  0
   -4.6035   -1.0570    1.0759 N   0  0  0  0  0  0  0  0  0  0  0  0
   -4.1414   -2.0541    1.8646 C   0  0  0  0  0  0  0  0  0  0  0  0
   -2.7159   -2.0652    1.8173 C   0  0  0  0  0  0  0  0  0  0  0  0
   -2.3490   -1.0551    0.9733 N   0  0  0  0  0  0  0  0  0  0  0  0
   -1.0160   -0.6865    0.6221 C   0  0  0  0  0  0  0  0  0  0  0  0
   -0.1916   -0.1107    1.5935 C   0  0  0  0  0  0  0  0  0  0  0  0
    1.1038    0.2552    1.2459 C   0  0  0  0  0  0  0  0  0  0  0  0
    1.5708    0.0479   -0.0575 C   0  0  0  0  0  0  0  0  0  0  0  0
    0.7337   -0.5431   -1.0144 C   0  0  0  0  0  0  0  0  0  0  0  0
   -0.5615   -0.9187   -0.6801 C   0  0  0  0  0  0  0  0  0  0  0  0
    2.9327    0.4508   -0.4273 C   0  0  0  0  0  0  0  0  0  0  0  0
    3.0864    1.0008   -1.6026 N   0  0  0  0  0  0  0  0  0  0  0  0
    4.3108    1.3795   -2.0039 N   0  0  0  0  0  0  0  0  0  0  0  0
    5.5149    1.0355   -1.3409 C   0  0  0  0  0  0  0  0  0  0  0  0
    6.5433    1.4617   -1.7995 O   0  0  0  0  0  0  0  0  0  0  0  0
    5.3931    0.1114   -0.1614 C   0  0  0  0  0  0  0  0  0  0  0  0
    4.0474    0.2420    0.5569 C   0  0  0  0  0  0  0  0  0  0  0  0
   -5.1043    1.7198    0.0536 C   0  0  0  0  0  0  0  0  0  0  0  0
   -5.0235   -0.5653   -1.7795 H   0  0  0  0  0  0  0  0  0  0  0  0
   -4.7978   -2.7120    2.4196 H   0  0  0  0  0  0  0  0  0  0  0  0
   -2.0147   -2.7175    2.3158 H   0  0  0  0  0  0  0  0  0  0  0  0
   -0.5547    0.0538    2.6094 H   0  0  0  0  0  0  0  0  0  0  0  0
    1.7529    0.7162    1.9945 H   0  0  0  0  0  0  0  0  0  0  0  0
    1.1059   -0.7051   -2.0327 H   0  0  0  0  0  0  0  0  0  0  0  0
   -1.1995   -1.4006   -1.4230 H   0  0  0  0  0  0  0  0  0  0  0  0
    4.3118    1.9211   -2.8713 H   0  0  0  0  0  0  0  0  0  0  0  0
    6.2341    0.2992    0.5458 H   0  0  0  0  0  0  0  0  0  0  0  0
    5.5518   -0.9335   -0.5182 H   0  0  0  0  0  0  0  0  0  0  0  0
    3.8685   -0.6561    1.1848 H   0  0  0  0  0  0  0  0  0  0  0  0
    4.0751    1.1013    1.2659 H   0  0  0  0  0  0  0  0  0  0  0  0
   -4.8423    2.4212    0.8693 H   0  0  0  0  0  0  0  0  0  0  0  0
   -5.9026    1.0784    0.4869 H   0  0  0  0  0  0  0  0  0  0  0  0
   -5.6073    2.3311   -0.7221 H   0  0  0  0  0  0  0  0  0  0  0  0
  1  2  1  0
  1  3  1  0
  3  4  2  0
  4  5  1  0
  5  6  2  0
  6  7  1  0
  7  8  1  0
  8  9  2  0
  9 10  1  0
 10 11  2  0
 11 12  1  0
 12 13  2  0
 11 14  1  0
 14 15  2  0
 15 16  1  0
 16 17  1  0
 17 18  2  0
 17 19  1  0
 19 20  1  0
  1 21  1  0
  7  3  1  0
 13  8  1  0
 20 14  1  0
  2 22  1  0
  5 23  1  0
  6 24  1  0
  9 25  1  0
 10 26  1  0
 12 27  1  0
 13 28  1  0
 16 29  1  0
 19 30  1  0
 19 31  1  0
 20 32  1  0
 20 33  1  0
 21 34  1  0
 21 35  1  0
 21 36  1  0
M  CHG  1   1   1
A    1
0.727496
A    2
-0.535292
A    3
0.024340
A    4
-0.341993
A    5
0.024462
A    6
-0.029932
A    7
0.007754
A    8
0.126549
A    9
-0.155635
A   10
-0.104390
A   11
0.042352
A   12
-0.095794
A   13
-0.162645
A   14
0.156433
A   15
-0.232096
A   16
-0.269427
A   17
0.565663
A   18
-0.541522
A   19
-0.245914
A   20
-0.174714
A   21
-0.467593
A   22
0.463313
A   23
0.141019
A   24
0.163802
A   25
0.137357
A   26
0.122920
A   27
0.121290
A   28
0.135850
A   29
0.319451
A   30
0.132214
A   31
0.130252
A   32
0.108523
A   33
0.106468
A   34
0.202151
A   35
0.191449
A   36
0.205838
M  END
$$$$
