
     RDKit          3D

 38 44  0  0  0  0  0  0  0  0999 V2000
   -2.2330    0.4555   -1.4774 O   0  0  0  0  0  0  0  0  0  0  0  0
   -1.1728    0.1735   -0.6510 C   0  0  0  0  0  0  0  0  0  0  0  0
   -0.9373   -1.3644   -0.4985 C   0  0  0  0  0  0  0  0  0  0  0  0
   -1.6746   -1.8031    0.7954 C   0  0  0  0  0  0  0  0  0  0  0  0
   -0.6836   -2.8116    1.4288 C   0  0  0  0  0  0  0  0  0  0  0  0
    0.5400   -1.8622    1.4076 C   0  0  0  0  0  0  0  0  0  0  0  0
    0.0032   -0.6024    2.1350 C   0  0  0  0  0  0  0  0  0  0  0  0
   -1.5239   -0.5582    1.7117 C   0  0  0  0  0  0  0  0  0  0  0  0
   -1.2420    0.6793    0.8201 C   0  0  0  0  0  0  0  0  0  0  0  0
    0.2857    0.6316    1.2380 C   0  0  0  0  0  0  0  0  0  0  0  0
    0.9818    0.1217   -0.0622 C   0  0  0  0  0  0  0  0  0  0  0  0
    0.5910   -1.3986   -0.0746 C   0  0  0  0  0  0  0  0  0  0  0  0
    0.1323    0.7719   -1.1076 N   0  0  0  0  0  0  0  0  0  0  0  0
    0.4837    0.4868   -2.5076 C   0  0  0  0  0  0  0  0  0  0  0  0
    1.7691    1.2056   -2.8532 C   0  0  0  0  0  0  0  0  0  0  0  0
    3.0171    0.6060   -2.6253 C   0  0  0  0  0  0  0  0  0  0  0  0
    4.1693    1.3106   -2.9636 C   0  0  0  0  0  0  0  0  0  0  0  0
    4.0516    2.5837   -3.5194 C   0  0  0  0  0  0  0  0  0  0  0  0
    2.7704    3.1068   -3.7247 C   0  0  0  0  0  0  0  0  0  0  0  0
    1.6490    2.4318   -3.4022 N   0  0  0  0  0  0  0  0  0  0  0  0
   -2.3010    1.4259   -1.6624 H   0  0  0  0  0  0  0  0  0  0  0  0
   -1.1793   -1.9515   -1.3851 H   0  0  0  0  0  0  0  0  0  0  0  0
   -2.6965   -2.1558    0.6510 H   0  0  0  0  0  0  0  0  0  0  0  0
   -0.5439   -3.7189    0.8294 H   0  0  0  0  0  0  0  0  0  0  0  0
   -0.9709   -3.1285    2.4387 H   0  0  0  0  0  0  0  0  0  0  0  0
    1.4730   -2.2682    1.7997 H   0  0  0  0  0  0  0  0  0  0  0  0
    0.2333   -0.5280    3.1911 H   0  0  0  0  0  0  0  0  0  0  0  0
   -2.2641   -0.4578    2.4965 H   0  0  0  0  0  0  0  0  0  0  0  0
   -1.7977    1.5911    0.9926 H   0  0  0  0  0  0  0  0  0  0  0  0
    0.7170    1.5158    1.6911 H   0  0  0  0  0  0  0  0  0  0  0  0
    2.0482    0.3452   -0.1540 H   0  0  0  0  0  0  0  0  0  0  0  0
    1.2148   -2.0176   -0.7201 H   0  0  0  0  0  0  0  0  0  0  0  0
   -0.3549    0.8630   -3.1497 H   0  0  0  0  0  0  0  0  0  0  0  0
    0.5829   -0.6010   -2.7288 H   0  0  0  0  0  0  0  0  0  0  0  0
    3.0815   -0.3907   -2.1948 H   0  0  0  0  0  0  0  0  0  0  0  0
    5.1539    0.8689   -2.7987 H   0  0  0  0  0  0  0  0  0  0  0  0
    4.9328    3.1602   -3.7901 H   0  0  0  0  0  0  0  0  0  0  0  0
    2.6188    4.1014   -4.1639 H   0  0  0  0  0  0  0  0  0  0  0  0
  1  2  1  0
  2  3  1  0
  3  4  1  0
  4  5  1  0
  5  6  1  0
  6  7  1  0
  7  8  1  0
  8  9  1  0
  9 10  1  0
 10 11  1  0
 11 12  1  0
 11 13  1  0
 13 14  1  0
 14 15  1  0
 15 16  2  0
 16 17  1  0
 17 18  2  0
 18 19  1  0
 19 20  2  0
  9  2  1  0
 20 15  1  0
 13  2  1  0
 12  3  1  0
  8  4  1  0
 12  6  1  0
 10  7  1  0
  1 21  1  0
  3 22  1  0
  4 23  1  0
  5 24  1  0
  5 25  1  0
  6 26  1  0
  7 27  1  0
  8 28  1  0
  9 29  1  0
 10 30  1  0
 11 31  1  0
 12 32  1  0
 14 33  1  0
 14 34  1  0
 16 35  1  0
 17 36  1  0
 18 37  1  0
 19 38  1  0
A    1
-0.563822
A    2
0.388758
A    3
-0.137763
A    4
-0.013115
A    5
-0.200128
A    6
-0.020648
A    7
-0.057492
A    8
-0.051262
A    9
-0.150089
A   10
-0.069462
A   11
0.055675
A   12
-0.081302
A   13
-0.332802
A   14
-0.085547
A   15
0.248494
A   16
-0.195613
A   17
-0.037040
A   18
-0.156509
A   19
0.092353
A   20
-0.381322
A   21
0.389894
A   22
0.088731
A   23
0.062590
A   24
0.079906
A   25
0.077087
A   26
0.059855
A   27
0.063541
A   28
0.063955
A   29
0.089209
A   30
0.072254
A   31
0.062617
A   32
0.065471
A   33
0.082173
A   34
0.060221
A   35
0.120510
A   36
0.110593
A   37
0.113801
A   38
0.086229
M  END
$$$$
