
     RDKit          3D

 39 41  0  0  0  0  0  0  0  0999 V2000
   -1.7590    3.3475   -2.1442 O   0  0  0  0  0  0  0  0  0  0  0  0
   -2.3859    2.6245   -1.4043 C   0  0  0  0  0  0  0  0  0  0  0  0
   -3.8056    2.7152   -1.4474 N   0  0  0  0  0  0  0  0  0  0  0  0
   -4.5921    1.8971   -0.6513 C   0  0  0  0  0  0  0  0  0  0  0  0
   -4.0969    0.9766    0.1357 N   0  0  0  0  0  0  0  0  0  0  0  0
   -2.7184    0.8165    0.2379 C   0  0  0  0  0  0  0  0  0  0  0  0
   -2.3234   -0.2470    1.1279 C   0  0  0  0  0  0  0  0  0  0  0  0
   -0.9814   -0.6165    1.0815 O   0  0  0  0  0  0  0  0  0  0  0  0
   -0.8318   -1.6295    1.9965 C   0  0  0  0  0  0  0  0  0  0  0  0
   -2.0214   -1.9102    2.6177 C   0  0  0  0  0  0  0  0  0  0  0  0
   -2.9924   -1.0162    2.0518 C   0  0  0  0  0  0  0  0  0  0  0  0
   -1.8533    1.6283   -0.4681 C   0  0  0  0  0  0  0  0  0  0  0  0
   -0.4576    1.6078   -0.3123 N   0  0  0  0  0  0  0  0  0  0  0  0
    0.1228    1.8846    0.9236 C   0  0  0  0  0  0  0  0  0  0  0  0
   -0.5687    2.1251    1.8879 O   0  0  0  0  0  0  0  0  0  0  0  0
    0.3722    1.4253   -1.5162 C   0  0  0  0  0  0  0  0  0  0  0  0
    1.3166    0.2697   -1.3334 C   0  0  0  0  0  0  0  0  0  0  0  0
    0.8094   -1.0313   -1.2279 C   0  0  0  0  0  0  0  0  0  0  0  0
    1.6649   -2.1073   -1.0599 C   0  0  0  0  0  0  0  0  0  0  0  0
    3.0488   -1.8662   -1.0077 C   0  0  0  0  0  0  0  0  0  0  0  0
    3.7770   -3.0024   -0.8525 O   0  0  0  0  0  0  0  0  0  0  0  0
    5.1921   -2.8746   -0.8500 C   0  0  0  0  0  0  0  0  0  0  0  0
    3.5712   -0.5779   -1.1074 C   0  0  0  0  0  0  0  0  0  0  0  0
    2.6901    0.4895   -1.2710 C   0  0  0  0  0  0  0  0  0  0  0  0
   -4.2180    3.4210   -2.0521 H   0  0  0  0  0  0  0  0  0  0  0  0
   -5.6864    2.0285   -0.7011 H   0  0  0  0  0  0  0  0  0  0  0  0
    0.1651   -2.0026    2.0515 H   0  0  0  0  0  0  0  0  0  0  0  0
   -2.2178   -2.6369    3.3756 H   0  0  0  0  0  0  0  0  0  0  0  0
   -4.0326   -0.9645    2.3060 H   0  0  0  0  0  0  0  0  0  0  0  0
    1.2203    1.8615    0.9429 H   0  0  0  0  0  0  0  0  0  0  0  0
   -0.2815    1.2518   -2.4057 H   0  0  0  0  0  0  0  0  0  0  0  0
    0.9108    2.3784   -1.7360 H   0  0  0  0  0  0  0  0  0  0  0  0
   -0.2693   -1.1938   -1.2697 H   0  0  0  0  0  0  0  0  0  0  0  0
    1.2909   -3.1240   -0.9756 H   0  0  0  0  0  0  0  0  0  0  0  0
    5.5206   -3.9190   -0.7520 H   0  0  0  0  0  0  0  0  0  0  0  0
    5.5493   -2.4487   -1.7927 H   0  0  0  0  0  0  0  0  0  0  0  0
    5.5274   -2.2854    0.0088 H   0  0  0  0  0  0  0  0  0  0  0  0
    4.6375   -0.3960   -1.0597 H   0  0  0  0  0  0  0  0  0  0  0  0
    3.0886    1.5003   -1.3516 H   0  0  0  0  0  0  0  0  0  0  0  0
  1  2  2  0
  2  3  1  0
  3  4  1  0
  4  5  2  0
  5  6  1  0
  6  7  1  0
  7  8  1  0
  8  9  1  0
  9 10  2  0
 10 11  1  0
  6 12  2  0
 12 13  1  0
 13 14  1  0
 14 15  2  0
 13 16  1  0
 16 17  1  0
 17 18  2  0
 18 19  1  0
 19 20  2  0
 20 21  1  0
 21 22  1  0
 20 23  1  0
 23 24  2  0
 12  2  1  0
  7 11  2  0
 24 17  1  0
  3 25  1  0
  4 26  1  0
  9 27  1  0
 10 28  1  0
 11 29  1  0
 14 30  1  0
 16 31  1  0
 16 32  1  0
 18 33  1  0
 19 34  1  0
 22 35  1  0
 22 36  1  0
 22 37  1  0
 23 38  1  0
 24 39  1  0
A    1
-0.552608
A    2
0.494047
A    3
-0.364682
A    4
0.268839
A    5
-0.417931
A    6
0.148541
A    7
0.148217
A    8
-0.135621
A    9
0.054145
A   10
-0.200334
A   11
-0.187530
A   12
-0.060292
A   13
-0.134114
A   14
0.390882
A   15
-0.504559
A   16
-0.065401
A   17
0.033281
A   18
-0.095792
A   19
-0.214669
A   20
0.259062
A   21
-0.219616
A   22
-0.125996
A   23
-0.247274
A   24
-0.118989
A   25
0.341701
A   26
0.098150
A   27
0.120829
A   28
0.147916
A   29
0.154354
A   30
0.054420
A   31
0.100479
A   32
0.079370
A   33
0.105669
A   34
0.125612
A   35
0.108125
A   36
0.095053
A   37
0.092297
A   38
0.118950
A   39
0.105466
M  END
$$$$
