
     RDKit          3D

 47 48  0  0  0  0  0  0  0  0999 V2000
   -5.8386   -0.6369    1.8072 O   0  0  0  0  0  0  0  0  0  0  0  0
   -4.7789   -0.1272    1.5633 C   0  0  0  0  0  0  0  0  0  0  0  0
   -3.5213   -0.6973    1.1601 C   0  0  0  0  0  0  0  0  0  0  0  0
   -2.6350    0.3278    0.9436 C   0  0  0  0  0  0  0  0  0  0  0  0
   -3.1111    1.5734    1.1867 O   0  0  0  0  0  0  0  0  0  0  0  0
   -4.5173    1.4069    1.5961 C   0  0  0  0  0  0  0  0  0  0  0  0
   -5.3605    2.1548    0.5978 C   0  0  0  0  0  0  0  0  0  0  0  0
   -1.3815    0.2675    0.5151 O   0  0  0  0  0  0  0  0  0  0  0  0
   -0.8627   -1.1037    0.4506 C   0  0  0  0  0  0  0  0  0  0  0  0
   -1.9334   -2.1052   -0.0710 C   0  0  0  0  0  0  0  0  0  0  0  0
   -1.2780   -3.3502    0.0463 O   0  0  0  0  0  0  0  0  0  0  0  0
   -3.1595   -2.1022    0.9041 C   0  0  0  0  0  0  0  0  0  0  0  0
   -4.1769   -2.8384    0.2580 O   0  0  0  0  0  0  0  0  0  0  0  0
   -2.3431   -1.8591   -1.5135 C   0  0  0  0  0  0  0  0  0  0  0  0
    0.3393   -0.9699   -0.4698 C   0  0  0  0  0  0  0  0  0  0  0  0
    1.4866   -0.2229    0.2185 C   0  0  0  0  0  0  0  0  0  0  0  0
    2.6981   -0.1260   -0.7167 C   0  0  0  0  0  0  0  0  0  0  0  0
    3.8486    0.6245   -0.0342 C   0  0  0  0  0  0  0  0  0  0  0  0
    5.0745    0.6890   -0.9542 C   0  0  0  0  0  0  0  0  0  0  0  0
    6.2381    1.4459   -0.2981 C   0  0  0  0  0  0  0  0  0  0  0  0
    6.0104    2.9578   -0.2989 C   0  0  0  0  0  0  0  0  0  0  0  0
   -4.5500    1.8185    2.6227 H   0  0  0  0  0  0  0  0  0  0  0  0
   -6.4325    2.0314    0.8215 H   0  0  0  0  0  0  0  0  0  0  0  0
   -5.2000    1.7950   -0.4290 H   0  0  0  0  0  0  0  0  0  0  0  0
   -5.1383    3.2309    0.5994 H   0  0  0  0  0  0  0  0  0  0  0  0
   -0.5730   -1.3595    1.4949 H   0  0  0  0  0  0  0  0  0  0  0  0
   -1.9077   -4.0758   -0.1669 H   0  0  0  0  0  0  0  0  0  0  0  0
   -2.9201   -2.6685    1.8374 H   0  0  0  0  0  0  0  0  0  0  0  0
   -5.0594   -2.5130    0.5504 H   0  0  0  0  0  0  0  0  0  0  0  0
   -1.5386   -2.1257   -2.2092 H   0  0  0  0  0  0  0  0  0  0  0  0
   -2.6157   -0.8120   -1.6862 H   0  0  0  0  0  0  0  0  0  0  0  0
   -3.2230   -2.4651   -1.7840 H   0  0  0  0  0  0  0  0  0  0  0  0
    0.0544   -0.4486   -1.4061 H   0  0  0  0  0  0  0  0  0  0  0  0
    0.6674   -1.9892   -0.7741 H   0  0  0  0  0  0  0  0  0  0  0  0
    1.7736   -0.7369    1.1553 H   0  0  0  0  0  0  0  0  0  0  0  0
    1.1539    0.7909    0.5158 H   0  0  0  0  0  0  0  0  0  0  0  0
    3.0303   -1.1383   -1.0142 H   0  0  0  0  0  0  0  0  0  0  0  0
    2.4154    0.3896   -1.6536 H   0  0  0  0  0  0  0  0  0  0  0  0
    4.1162    0.1291    0.9174 H   0  0  0  0  0  0  0  0  0  0  0  0
    3.5251    1.6467    0.2377 H   0  0  0  0  0  0  0  0  0  0  0  0
    4.8049    1.1707   -1.9125 H   0  0  0  0  0  0  0  0  0  0  0  0
    5.3995   -0.3364   -1.2136 H   0  0  0  0  0  0  0  0  0  0  0  0
    7.1783    1.2128   -0.8344 H   0  0  0  0  0  0  0  0  0  0  0  0
    6.3879    1.0860    0.7372 H   0  0  0  0  0  0  0  0  0  0  0  0
    5.1004    3.2274    0.2487 H   0  0  0  0  0  0  0  0  0  0  0  0
    5.9066    3.3459   -1.3182 H   0  0  0  0  0  0  0  0  0  0  0  0
    6.8468    3.4853    0.1725 H   0  0  0  0  0  0  0  0  0  0  0  0
  1  2  2  0
  2  3  1  0
  3  4  2  0
  4  5  1  0
  5  6  1  0
  6  7  1  0
  4  8  1  0
  8  9  1  0
  9 10  1  0
 10 11  1  0
 10 12  1  0
 12 13  1  0
 10 14  1  0
  9 15  1  0
 15 16  1  0
 16 17  1  0
 17 18  1  0
 18 19  1  0
 19 20  1  0
 20 21  1  0
  6  2  1  0
 12  3  1  0
  6 22  1  0
  7 23  1  0
  7 24  1  0
  7 25  1  0
  9 26  1  0
 11 27  1  0
 12 28  1  0
 13 29  1  0
 14 30  1  0
 14 31  1  0
 14 32  1  0
 15 33  1  0
 15 34  1  0
 16 35  1  0
 16 36  1  0
 17 37  1  0
 17 38  1  0
 18 39  1  0
 18 40  1  0
 19 41  1  0
 19 42  1  0
 20 43  1  0
 20 44  1  0
 21 45  1  0
 21 46  1  0
 21 47  1  0
A    1
-0.499685
A    2
0.379520
A    3
-0.385839
A    4
0.442898
A    5
-0.275269
A    6
0.143770
A    7
-0.378657
A    8
-0.237234
A    9
0.131602
A   10
0.266060
A   11
-0.571172
A   12
0.185810
A   13
-0.549053
A   14
-0.432044
A   15
-0.185422
A   16
-0.121528
A   17
-0.125072
A   18
-0.129945
A   19
-0.126438
A   20
-0.075686
A   21
-0.329491
A   22
0.087988
A   23
0.132063
A   24
0.126429
A   25
0.126187
A   26
0.070701
A   27
0.391531
A   28
0.041055
A   29
0.382615
A   30
0.129988
A   31
0.121982
A   32
0.128374
A   33
0.092789
A   34
0.095301
A   35
0.070604
A   36
0.073065
A   37
0.068094
A   38
0.068819
A   39
0.066362
A   40
0.067129
A   41
0.064579
A   42
0.061014
A   43
0.056325
A   44
0.059949
A   45
0.095826
A   46
0.097321
A   47
0.096786
M  END
$$$$
