
     RDKit          3D

 41 43  0  0  0  0  0  0  0  0999 V2000
    0.1277    2.7662    0.5802 O   0  0  0  0  0  0  0  0  0  0  0  0
   -0.0539    1.5931    0.3399 C   0  0  0  0  0  0  0  0  0  0  0  0
    1.0746    0.7756    0.1898 N   0  0  0  0  0  0  0  0  0  0  0  0
    2.3934    1.2252    0.3591 C   0  0  0  0  0  0  0  0  0  0  0  0
    3.2881    0.2086    0.2305 C   0  0  0  0  0  0  0  0  0  0  0  0
    4.7142    0.3207    0.3266 C   0  0  0  0  0  0  0  0  0  0  0  0
    5.5661   -0.7075    0.1625 C   0  0  0  0  0  0  0  0  0  0  0  0
    7.0148   -0.4689    0.2833 C   0  0  0  0  0  0  0  0  0  0  0  0
    7.5153    0.6101    0.5429 O   0  0  0  0  0  0  0  0  0  0  0  0
    7.8505   -1.5589    0.0849 N   0  0  0  0  0  0  0  0  0  0  0  0
    2.5643   -1.0899   -0.0404 C   0  0  0  0  0  0  0  0  0  0  0  0
    1.0598   -0.6927   -0.0211 C   0  0  1  0  0  0  0  0  0  0  0  0
    0.2838   -1.3347    1.1156 C   0  0  0  0  0  0  0  0  0  0  0  0
   -0.9542   -1.1290    1.3666 N   0  0  0  0  0  0  0  0  0  0  0  0
   -1.7732   -0.2693    0.6083 C   0  0  0  0  0  0  0  0  0  0  0  0
   -1.3880    0.9920    0.1371 C   0  0  0  0  0  0  0  0  0  0  0  0
   -2.3211    1.8029   -0.5223 C   0  0  0  0  0  0  0  0  0  0  0  0
   -3.6137    1.3470   -0.7515 C   0  0  0  0  0  0  0  0  0  0  0  0
   -4.3714    2.1972   -1.4939 O   0  0  0  0  0  0  0  0  0  0  0  0
   -5.7820    2.1216   -1.3219 C   0  0  0  0  0  0  0  0  0  0  0  0
   -3.9985    0.0668   -0.2804 C   0  0  0  0  0  0  0  0  0  0  0  0
   -5.2809   -0.2794   -0.5561 O   0  0  0  0  0  0  0  0  0  0  0  0
   -5.7410   -1.5235   -0.0400 C   0  0  0  0  0  0  0  0  0  0  0  0
   -3.0887   -0.7251    0.4034 C   0  0  0  0  0  0  0  0  0  0  0  0
    2.5669    2.2812    0.5539 H   0  0  0  0  0  0  0  0  0  0  0  0
    5.1080    1.3268    0.5494 H   0  0  0  0  0  0  0  0  0  0  0  0
    5.2397   -1.7157   -0.0586 H   0  0  0  0  0  0  0  0  0  0  0  0
    7.5175   -2.4668   -0.1338 H   0  0  0  0  0  0  0  0  0  0  0  0
    8.8405   -1.4415    0.1556 H   0  0  0  0  0  0  0  0  0  0  0  0
    2.8542   -1.5120   -1.0192 H   0  0  0  0  0  0  0  0  0  0  0  0
    2.8082   -1.8532    0.7183 H   0  0  0  0  0  0  0  0  0  0  0  0
    0.5687   -0.9240   -1.0011 H   0  0  0  0  0  0  0  0  0  0  0  0
    0.8373   -2.0176    1.7766 H   0  0  0  0  0  0  0  0  0  0  0  0
   -2.0367    2.8074   -0.8584 H   0  0  0  0  0  0  0  0  0  0  0  0
   -6.1190    3.0717   -1.7582 H   0  0  0  0  0  0  0  0  0  0  0  0
   -6.0656    2.0591   -0.2681 H   0  0  0  0  0  0  0  0  0  0  0  0
   -6.1802    1.2743   -1.8914 H   0  0  0  0  0  0  0  0  0  0  0  0
   -6.7848   -1.5403   -0.3823 H   0  0  0  0  0  0  0  0  0  0  0  0
   -5.1827   -2.3577   -0.4765 H   0  0  0  0  0  0  0  0  0  0  0  0
   -5.6944   -1.5371    1.0538 H   0  0  0  0  0  0  0  0  0  0  0  0
   -3.3637   -1.7029    0.7973 H   0  0  0  0  0  0  0  0  0  0  0  0
  1  2  2  0
  2  3  1  0
  3  4  1  0
  4  5  2  0
  5  6  1  0
  6  7  2  0
  7  8  1  0
  8  9  2  0
  8 10  1  0
  5 11  1  0
 11 12  1  0
 12 13  1  0
 13 14  2  0
 14 15  1  0
 15 16  2  0
 16 17  1  0
 17 18  2  0
 18 19  1  0
 19 20  1  0
 18 21  1  0
 21 22  1  0
 22 23  1  0
 21 24  2  0
 16  2  1  0
 12  3  1  0
 24 15  1  0
  4 25  1  0
  6 26  1  0
  7 27  1  0
 10 28  1  0
 10 29  1  0
 11 30  1  0
 11 31  1  0
 12 32  1  6
 13 33  1  0
 17 34  1  0
 20 35  1  0
 20 36  1  0
 20 37  1  0
 23 38  1  0
 23 39  1  0
 23 40  1  0
 24 41  1  0
A    1
-0.533751
A    2
0.491725
A    3
-0.152988
A    4
-0.016509
A    5
0.017820
A    6
-0.054302
A    7
-0.296898
A    8
0.628530
A    9
-0.607695
A   10
-0.718229
A   11
-0.200830
A   12
0.103866
A   13
0.100427
A   14
-0.339273
A   15
0.201314
A   16
-0.131166
A   17
-0.196089
A   18
0.152329
A   19
-0.192594
A   20
-0.133026
A   21
0.170802
A   22
-0.176064
A   23
-0.133965
A   24
-0.293489
A   25
0.135118
A   26
0.112570
A   27
0.125232
A   28
0.338000
A   29
0.353193
A   30
0.104994
A   31
0.100064
A   32
0.078303
A   33
0.085993
A   34
0.138822
A   35
0.095432
A   36
0.097996
A   37
0.092086
A   38
0.112414
A   39
0.101860
A   40
0.103753
A   41
0.134227
M  END
$$$$
