
     RDKit          3D

 31 31  0  0  0  0  0  0  0  0999 V2000
   -0.6139   -1.9835   -3.9967 O   0  0  0  0  0  0  0  0  0  0  0  0
   -0.4670   -0.8939   -3.5044 C   0  0  0  0  0  0  0  0  0  0  0  0
   -1.4006    0.0678   -3.6265 O   0  0  0  0  0  0  0  0  0  0  0  0
    0.7333   -0.3776   -2.7127 C   0  0  2  0  0  0  0  0  0  0  0  0
    1.4056   -1.5467   -1.9864 C   0  0  0  0  0  0  0  0  0  0  0  0
    0.6549   -1.5812   -0.3084 S   0  0  0  0  0  0  0  0  0  0  0  0
   -0.2746    0.0150   -0.5488 C   0  0  0  0  0  0  0  0  0  0  0  0
   -0.1445    0.9759    0.6503 C   0  0  0  0  0  0  0  0  0  0  0  0
   -0.9598    2.0682    0.2814 O   0  0  0  0  0  0  0  0  0  0  0  0
   -0.5767    0.3318    1.9864 C   0  0  0  0  0  0  0  0  0  0  0  0
   -1.8766   -0.2141    1.8950 O   0  0  0  0  0  0  0  0  0  0  0  0
   -0.7240    1.3320    3.1570 C   0  0  0  0  0  0  0  0  0  0  0  0
   -1.6836    2.3317    2.8424 O   0  0  0  0  0  0  0  0  0  0  0  0
    0.5676    2.1089    3.4400 C   0  0  0  0  0  0  0  0  0  0  0  0
    0.4131    2.8428    4.6351 O   0  0  0  0  0  0  0  0  0  0  0  0
    0.4035    0.6357   -1.7001 N   0  0  0  0  0  0  0  0  0  0  0  0
   -2.2050   -0.2024   -4.1547 H   0  0  0  0  0  0  0  0  0  0  0  0
    1.4360    0.1023   -3.4589 H   0  0  0  0  0  0  0  0  0  0  0  0
    1.2474   -2.5188   -2.4935 H   0  0  0  0  0  0  0  0  0  0  0  0
    2.5005   -1.4033   -1.9105 H   0  0  0  0  0  0  0  0  0  0  0  0
   -1.3537   -0.2151   -0.7417 H   0  0  0  0  0  0  0  0  0  0  0  0
    0.8951    1.3801    0.7298 H   0  0  0  0  0  0  0  0  0  0  0  0
   -1.3905    2.4513    1.0892 H   0  0  0  0  0  0  0  0  0  0  0  0
    0.1413   -0.4720    2.2816 H   0  0  0  0  0  0  0  0  0  0  0  0
   -1.9071   -0.9826    1.2857 H   0  0  0  0  0  0  0  0  0  0  0  0
   -1.0863    0.7962    4.0681 H   0  0  0  0  0  0  0  0  0  0  0  0
   -2.5728    1.9109    2.7260 H   0  0  0  0  0  0  0  0  0  0  0  0
    1.4238    1.4377    3.6438 H   0  0  0  0  0  0  0  0  0  0  0  0
    0.8200    2.8073    2.6194 H   0  0  0  0  0  0  0  0  0  0  0  0
   -0.3816    3.4254    4.5687 H   0  0  0  0  0  0  0  0  0  0  0  0
   -0.1221    1.4329   -2.0788 H   0  0  0  0  0  0  0  0  0  0  0  0
  1  2  2  0
  2  3  1  0
  2  4  1  0
  4  5  1  0
  5  6  1  0
  6  7  1  0
  7  8  1  0
  8  9  1  0
  8 10  1  0
 10 11  1  0
 10 12  1  0
 12 13  1  0
 12 14  1  0
 14 15  1  0
  7 16  1  0
 16  4  1  0
  3 17  1  0
  4 18  1  6
  5 19  1  0
  5 20  1  0
  7 21  1  0
  8 22  1  0
  9 23  1  0
 10 24  1  0
 11 25  1  0
 12 26  1  0
 13 27  1  0
 14 28  1  0
 14 29  1  0
 15 30  1  0
 16 31  1  0
A    1
-0.552006
A    2
0.632323
A    3
-0.531217
A    4
0.039793
A    5
-0.167384
A    6
-0.171598
A    7
0.078748
A    8
0.133754
A    9
-0.558320
A   10
0.097198
A   11
-0.549910
A   12
0.142663
A   13
-0.531074
A   14
0.057964
A   15
-0.542372
A   16
-0.439220
A   17
0.424178
A   18
0.103307
A   19
0.120497
A   20
0.111602
A   21
0.044790
A   22
0.036325
A   23
0.349748
A   24
0.050183
A   25
0.376816
A   26
0.055143
A   27
0.398885
A   28
0.082595
A   29
0.061936
A   30
0.368819
A   31
0.275831
M  END
$$$$
