
     RDKit          3D

 29 28  0  0  0  0  0  0  0  0999 V2000
    3.9814    0.5538   -1.7222 Cl  0  0  0  0  0  0  0  0  0  0  0  0
    3.8311   -0.2924   -0.1854 C   0  0  0  0  0  0  0  0  0  0  0  0
    5.2145    0.1083    0.8172 Cl  0  0  0  0  0  0  0  0  0  0  0  0
    3.8163   -2.0199   -0.4793 Cl  0  0  0  0  0  0  0  0  0  0  0  0
    2.5299    0.1752    0.5105 C   0  0  0  0  0  0  0  0  0  0  0  0
    1.5141   -0.2883   -0.3240 O   0  0  0  0  0  0  0  0  0  0  0  0
    0.3240    0.5131   -0.3825 C   0  0  0  0  0  0  0  0  0  0  0  0
   -0.6792   -0.4467   -1.0268 C   0  0  0  0  0  0  0  0  0  0  0  0
   -1.9943   -0.5758   -0.2318 C   0  0  0  0  0  0  0  0  0  0  0  0
   -2.8730   -1.3791   -1.0078 O   0  0  0  0  0  0  0  0  0  0  0  0
   -2.7406    0.7546   -0.1180 C   0  0  0  0  0  0  0  0  0  0  0  0
   -1.7863   -1.2391    1.1323 C   0  0  0  0  0  0  0  0  0  0  0  0
    0.6019    1.7411   -1.2415 C   0  0  0  0  0  0  0  0  0  0  0  0
    2.4160   -0.4103    1.7670 O   0  0  0  0  0  0  0  0  0  0  0  0
    2.5118    1.2708    0.7129 H   0  0  0  0  0  0  0  0  0  0  0  0
    0.0402    0.7897    0.6565 H   0  0  0  0  0  0  0  0  0  0  0  0
   -0.2077   -1.4476   -1.1393 H   0  0  0  0  0  0  0  0  0  0  0  0
   -0.9161   -0.1392   -2.0646 H   0  0  0  0  0  0  0  0  0  0  0  0
   -2.5649   -2.3012   -1.0588 H   0  0  0  0  0  0  0  0  0  0  0  0
   -2.9327    1.1795   -1.1116 H   0  0  0  0  0  0  0  0  0  0  0  0
   -2.1869    1.4875    0.4727 H   0  0  0  0  0  0  0  0  0  0  0  0
   -3.7225    0.6057    0.3513 H   0  0  0  0  0  0  0  0  0  0  0  0
   -2.7529   -1.5078    1.5786 H   0  0  0  0  0  0  0  0  0  0  0  0
   -1.1920   -2.1551    1.0551 H   0  0  0  0  0  0  0  0  0  0  0  0
   -1.2754   -0.5742    1.8359 H   0  0  0  0  0  0  0  0  0  0  0  0
   -0.3253    2.2812   -1.4692 H   0  0  0  0  0  0  0  0  0  0  0  0
    1.0605    1.4564   -2.1996 H   0  0  0  0  0  0  0  0  0  0  0  0
    1.2821    2.4473   -0.7547 H   0  0  0  0  0  0  0  0  0  0  0  0
    2.1137   -1.3469    1.7155 H   0  0  0  0  0  0  0  0  0  0  0  0
  1  2  1  0
  2  3  1  0
  2  4  1  0
  2  5  1  0
  5  6  1  0
  6  7  1  0
  7  8  1  0
  8  9  1  0
  9 10  1  0
  9 11  1  0
  9 12  1  0
  7 13  1  0
  5 14  1  0
  5 15  1  0
  7 16  1  0
  8 17  1  0
  8 18  1  0
 10 19  1  0
 11 20  1  0
 11 21  1  0
 11 22  1  0
 12 23  1  0
 12 24  1  0
 12 25  1  0
 13 26  1  0
 13 27  1  0
 13 28  1  0
 14 29  1  0
A    1
-0.113872
A    2
0.225684
A    3
-0.118203
A    4
-0.101950
A    5
0.313227
A    6
-0.354808
A    7
0.280721
A    8
-0.300792
A    9
0.433527
A   10
-0.595456
A   11
-0.411234
A   12
-0.438848
A   13
-0.415602
A   14
-0.557918
A   15
0.072311
A   16
0.032149
A   17
0.105024
A   18
0.099166
A   19
0.373752
A   20
0.120232
A   21
0.115943
A   22
0.120283
A   23
0.122716
A   24
0.117754
A   25
0.119296
A   26
0.125795
A   27
0.123857
A   28
0.112901
A   29
0.394346
M  END
$$$$
