
     RDKit          3D

 42 43  0  0  0  0  0  0  0  0999 V2000
    1.4610   -1.0117    1.9707 C   0  0  0  0  0  0  0  0  0  0  0  0
    0.8902   -0.1758    0.8985 N   0  0  0  0  0  0  0  0  0  0  0  0
   -0.0678    0.8046    1.4636 C   0  0  0  0  0  0  0  0  0  0  0  0
   -0.9558    1.2801    0.3467 C   0  0  0  0  0  0  0  0  0  0  0  0
   -0.9274    2.5942    0.0587 O   0  0  0  0  0  0  0  0  0  0  0  0
   -1.7858    0.5150   -0.4103 C   0  0  0  0  0  0  0  0  0  0  0  0
   -1.9062   -0.8736   -0.1863 C   0  0  0  0  0  0  0  0  0  0  0  0
   -2.0409   -2.0138   -0.0175 N   0  0  0  0  0  0  0  0  0  0  0  0
   -2.5822    1.0659   -1.5103 C   0  0  0  0  0  0  0  0  0  0  0  0
   -2.5596    0.4422   -2.7624 C   0  0  0  0  0  0  0  0  0  0  0  0
   -3.3265    0.9515   -3.8061 C   0  0  0  0  0  0  0  0  0  0  0  0
   -4.1152    2.0835   -3.6079 C   0  0  0  0  0  0  0  0  0  0  0  0
   -4.1295    2.7125   -2.3646 C   0  0  0  0  0  0  0  0  0  0  0  0
   -3.3654    2.2074   -1.3152 C   0  0  0  0  0  0  0  0  0  0  0  0
    1.9008    0.4804    0.0342 C   0  0  0  0  0  0  0  0  0  0  0  0
    3.0291    1.2196    0.7855 C   0  0  0  0  0  0  0  0  0  0  0  0
    3.9471    1.9064   -0.2322 C   0  0  0  0  0  0  0  0  0  0  0  0
    4.5377    0.8771   -1.2058 C   0  0  0  0  0  0  0  0  0  0  0  0
    3.4244    0.0999   -1.9211 C   0  0  0  0  0  0  0  0  0  0  0  0
    2.5048   -0.5861   -0.9052 C   0  0  0  0  0  0  0  0  0  0  0  0
    0.6560   -1.6349    2.4003 H   0  0  0  0  0  0  0  0  0  0  0  0
    1.9420   -0.4499    2.7856 H   0  0  0  0  0  0  0  0  0  0  0  0
    2.2088   -1.7014    1.5434 H   0  0  0  0  0  0  0  0  0  0  0  0
   -0.6920    0.2970    2.2433 H   0  0  0  0  0  0  0  0  0  0  0  0
    0.4231    1.6565    1.9885 H   0  0  0  0  0  0  0  0  0  0  0  0
   -0.2955    3.1141    0.6307 H   0  0  0  0  0  0  0  0  0  0  0  0
   -1.9389   -0.4399   -2.9189 H   0  0  0  0  0  0  0  0  0  0  0  0
   -3.3117    0.4629   -4.7799 H   0  0  0  0  0  0  0  0  0  0  0  0
   -4.7194    2.4765   -4.4241 H   0  0  0  0  0  0  0  0  0  0  0  0
   -4.7408    3.6009   -2.2112 H   0  0  0  0  0  0  0  0  0  0  0  0
   -3.3763    2.7011   -0.3441 H   0  0  0  0  0  0  0  0  0  0  0  0
    1.3535    1.2260   -0.6058 H   0  0  0  0  0  0  0  0  0  0  0  0
    3.6125    0.5106    1.4003 H   0  0  0  0  0  0  0  0  0  0  0  0
    2.6091    1.9593    1.4879 H   0  0  0  0  0  0  0  0  0  0  0  0
    3.3847    2.6780   -0.7915 H   0  0  0  0  0  0  0  0  0  0  0  0
    4.7591    2.4439    0.2914 H   0  0  0  0  0  0  0  0  0  0  0  0
    5.1935    0.1756   -0.6569 H   0  0  0  0  0  0  0  0  0  0  0  0
    5.1836    1.3843   -1.9460 H   0  0  0  0  0  0  0  0  0  0  0  0
    3.8640   -0.6521   -2.6022 H   0  0  0  0  0  0  0  0  0  0  0  0
    2.8374    0.7845   -2.5627 H   0  0  0  0  0  0  0  0  0  0  0  0
    1.6914   -1.1329   -1.4187 H   0  0  0  0  0  0  0  0  0  0  0  0
    3.0652   -1.3436   -0.3298 H   0  0  0  0  0  0  0  0  0  0  0  0
  1  2  1  0
  2  3  1  0
  3  4  1  0
  4  5  1  0
  4  6  2  0
  6  7  1  0
  7  8  3  0
  6  9  1  0
  9 10  2  0
 10 11  1  0
 11 12  2  0
 12 13  1  0
 13 14  2  0
  2 15  1  0
 15 16  1  0
 16 17  1  0
 17 18  1  0
 18 19  1  0
 19 20  1  0
 14  9  1  0
 20 15  1  0
  1 21  1  0
  1 22  1  0
  1 23  1  0
  3 24  1  0
  3 25  1  0
  5 26  1  0
 10 27  1  0
 11 28  1  0
 12 29  1  0
 13 30  1  0
 14 31  1  0
 15 32  1  0
 16 33  1  0
 16 34  1  0
 17 35  1  0
 17 36  1  0
 18 37  1  0
 18 38  1  0
 19 39  1  0
 19 40  1  0
 20 41  1  0
 20 42  1  0
A    1
-0.223001
A    2
-0.170658
A    3
-0.140757
A    4
0.309570
A    5
-0.453570
A    6
-0.174930
A    7
0.296882
A    8
-0.488839
A    9
0.095528
A   10
-0.146615
A   11
-0.092483
A   12
-0.105839
A   13
-0.098450
A   14
-0.133242
A   15
0.112792
A   16
-0.188351
A   17
-0.115215
A   18
-0.126666
A   19
-0.120821
A   20
-0.178217
A   21
0.102986
A   22
0.076119
A   23
0.102915
A   24
0.114108
A   25
0.067988
A   26
0.400067
A   27
0.114537
A   28
0.105145
A   29
0.103350
A   30
0.104851
A   31
0.109647
A   32
0.038669
A   33
0.080010
A   34
0.067686
A   35
0.065487
A   36
0.064989
A   37
0.068292
A   38
0.064016
A   39
0.066271
A   40
0.068504
A   41
0.079781
A   42
0.077461
M  END
$$$$
