
     RDKit          3D

 41 42  0  0  0  0  0  0  0  0999 V2000
    2.3819    3.4818    1.8960 C   0  0  0  0  0  0  0  0  0  0  0  0
    3.1527    2.6666    0.8502 C   0  0  0  0  0  0  0  0  0  0  0  0
    2.3270    1.8806   -0.0918 N   0  0  0  0  0  0  0  0  0  0  0  0
    1.4072    2.7244   -0.8975 C   0  0  0  0  0  0  0  0  0  0  0  0
    2.2010    3.6926   -1.7817 C   0  0  0  0  0  0  0  0  0  0  0  0
    1.5864    0.8030    0.6055 C   0  0  0  0  0  0  0  0  0  0  0  0
    1.3332   -0.3366   -0.4194 C   0  0  0  0  0  0  0  0  0  0  0  0
    0.7707   -1.4455    0.3199 N   0  0  0  0  0  0  0  0  0  0  0  0
    0.1546   -2.4475   -0.1911 C   0  0  0  0  0  0  0  0  0  0  0  0
   -0.1906   -2.7735   -1.5845 C   0  0  0  0  0  0  0  0  0  0  0  0
    0.4618   -2.0992   -2.6385 C   0  0  0  0  0  0  0  0  0  0  0  0
    1.0035   -1.5665   -3.5138 N   0  0  0  0  0  0  0  0  0  0  0  0
   -1.1155   -3.7074   -1.8841 N   0  0  0  0  0  0  0  0  0  0  0  0
   -1.4282   -3.9529   -3.0492 O   0  0  0  0  0  0  0  0  0  0  0  0
   -1.7612   -4.4324   -0.8440 C   0  0  0  0  0  0  0  0  0  0  0  0
   -2.8135   -5.3143   -1.1465 C   0  0  0  0  0  0  0  0  0  0  0  0
   -3.4459   -5.9976   -0.1235 C   0  0  0  0  0  0  0  0  0  0  0  0
   -3.0394   -5.8114    1.2056 C   0  0  0  0  0  0  0  0  0  0  0  0
   -1.9943   -4.9551    1.5193 C   0  0  0  0  0  0  0  0  0  0  0  0
   -1.3349   -4.2609    0.4927 C   0  0  0  0  0  0  0  0  0  0  0  0
   -0.1671   -3.5102    0.7392 N   0  0  0  0  0  0  0  0  0  0  0  0
   -0.1769   -3.0986    2.0805 O   0  0  0  0  0  0  0  0  0  0  0  0
    3.0686    4.0171    2.5608 H   0  0  0  0  0  0  0  0  0  0  0  0
    1.7471    2.8428    2.5193 H   0  0  0  0  0  0  0  0  0  0  0  0
    1.7351    4.2307    1.4242 H   0  0  0  0  0  0  0  0  0  0  0  0
    3.8499    1.9612    1.3573 H   0  0  0  0  0  0  0  0  0  0  0  0
    3.7970    3.3444    0.2445 H   0  0  0  0  0  0  0  0  0  0  0  0
    0.8066    2.0473   -1.5475 H   0  0  0  0  0  0  0  0  0  0  0  0
    0.6797    3.2834   -0.2701 H   0  0  0  0  0  0  0  0  0  0  0  0
    3.0634    3.1904   -2.2392 H   0  0  0  0  0  0  0  0  0  0  0  0
    2.5795    4.5480   -1.2124 H   0  0  0  0  0  0  0  0  0  0  0  0
    1.5756    4.0836   -2.5915 H   0  0  0  0  0  0  0  0  0  0  0  0
    2.1955    0.4067    1.4476 H   0  0  0  0  0  0  0  0  0  0  0  0
    0.6254    1.1397    1.0459 H   0  0  0  0  0  0  0  0  0  0  0  0
    0.6682    0.0292   -1.2341 H   0  0  0  0  0  0  0  0  0  0  0  0
    2.3002   -0.6291   -0.8974 H   0  0  0  0  0  0  0  0  0  0  0  0
   -3.1227   -5.4513   -2.1908 H   0  0  0  0  0  0  0  0  0  0  0  0
   -4.2638   -6.6849   -0.3471 H   0  0  0  0  0  0  0  0  0  0  0  0
   -3.5560   -6.3512    2.0053 H   0  0  0  0  0  0  0  0  0  0  0  0
   -1.6822   -4.8216    2.5584 H   0  0  0  0  0  0  0  0  0  0  0  0
    0.7460   -2.6968    2.2308 H   0  0  0  0  0  0  0  0  0  0  0  0
  1  2  1  0
  2  3  1  0
  3  4  1  0
  4  5  1  0
  3  6  1  0
  6  7  1  0
  7  8  1  0
  8  9  2  3
  9 10  1  0
 10 11  1  0
 11 12  3  0
 10 13  2  0
 13 14  1  0
 13 15  1  0
 15 16  2  0
 16 17  1  0
 17 18  2  0
 18 19  1  0
 19 20  2  0
 20 21  1  0
 21 22  1  0
 21  9  1  0
 20 15  1  0
  1 23  1  0
  1 24  1  0
  1 25  1  0
  2 26  1  0
  2 27  1  0
  4 28  1  0
  4 29  1  0
  5 30  1  0
  5 31  1  0
  5 32  1  0
  6 33  1  0
  6 34  1  0
  7 35  1  0
  7 36  1  0
 16 37  1  0
 17 38  1  0
 18 39  1  0
 19 40  1  0
 22 41  1  0
M  CHG  2  13   1  14  -1
A    1
-0.360290
A    2
0.016913
A    3
-0.228645
A    4
0.024961
A    5
-0.352060
A    6
-0.053277
A    7
0.002166
A    8
-0.400573
A    9
0.222415
A   10
-0.053529
A   11
0.270204
A   12
-0.391520
A   13
0.344160
A   14
-0.385000
A   15
0.014200
A   16
-0.109984
A   17
-0.102582
A   18
-0.037825
A   19
-0.165062
A   20
0.119728
A   21
0.030803
A   22
-0.399147
A   23
0.108927
A   24
0.104966
A   25
0.103048
A   26
0.058494
A   27
0.055898
A   28
0.062087
A   29
0.036373
A   30
0.108859
A   31
0.101367
A   32
0.108996
A   33
0.072353
A   34
0.050719
A   35
0.062725
A   36
0.079800
A   37
0.134372
A   38
0.118326
A   39
0.115868
A   40
0.133604
A   41
0.377159
M  END
$$$$
