
     RDKit          3D

 41 43  0  0  0  0  0  0  0  0999 V2000
    3.4628    0.9238   -2.3440 O   0  0  0  0  0  0  0  0  0  0  0  0
    4.0252    0.3434   -1.4706 C   0  0  0  0  0  0  0  0  0  0  0  0
    3.7069   -0.9912   -0.9960 N   0  0  0  0  0  0  0  0  0  0  0  0
    2.4084   -1.4534   -1.1653 N   0  0  0  0  0  0  0  0  0  0  0  0
    1.4363   -1.0062   -0.2554 C   0  0  0  0  0  0  0  0  0  0  0  0
    0.2788   -1.7280   -0.2316 N   0  0  0  0  0  0  0  0  0  0  0  0
   -0.7593   -1.2237    0.4664 C   0  0  0  0  0  0  0  0  0  0  0  0
   -0.6310   -0.0047    1.1612 C   0  0  0  0  0  0  0  0  0  0  0  0
    0.6250    0.6247    1.1569 C   0  0  0  0  0  0  0  0  0  0  0  0
    1.6596    0.1448    0.4524 N   0  0  0  0  0  0  0  0  0  0  0  0
   -1.7192    0.6204    1.9379 C   0  0  0  0  0  0  0  0  0  0  0  0
   -1.5544    0.9427    3.0900 O   0  0  0  0  0  0  0  0  0  0  0  0
   -3.0051    0.8705    1.2415 C   0  0  0  0  0  0  0  0  0  0  0  0
   -4.1986    0.6639    1.9339 C   0  0  0  0  0  0  0  0  0  0  0  0
   -5.4147    0.8975    1.2958 C   0  0  0  0  0  0  0  0  0  0  0  0
   -5.4334    1.3540   -0.0215 C   0  0  0  0  0  0  0  0  0  0  0  0
   -4.2381    1.5785   -0.7041 C   0  0  0  0  0  0  0  0  0  0  0  0
   -3.0200    1.3340   -0.0742 C   0  0  0  0  0  0  0  0  0  0  0  0
   -2.0016   -2.0654    0.4825 C   0  0  0  0  0  0  0  0  0  0  0  0
   -2.6991   -2.0072   -0.8768 C   0  0  0  0  0  0  0  0  0  0  0  0
    4.4530   -1.2397    0.2359 C   0  0  0  0  0  0  0  0  0  0  0  0
    4.2270   -2.1681    0.9506 O   0  0  0  0  0  0  0  0  0  0  0  0
    5.4862   -0.1675    0.2897 C   0  0  0  0  0  0  0  0  0  0  0  0
    5.2548    0.7441   -0.6711 C   0  0  0  0  0  0  0  0  0  0  0  0
    5.9764    1.9697   -1.0184 C   0  0  0  0  0  0  0  0  0  0  0  0
    2.4057   -2.4637   -1.3782 H   0  0  0  0  0  0  0  0  0  0  0  0
    0.8150    1.5433    1.7352 H   0  0  0  0  0  0  0  0  0  0  0  0
   -4.1732    0.3275    2.9720 H   0  0  0  0  0  0  0  0  0  0  0  0
   -6.3490    0.7292    1.8275 H   0  0  0  0  0  0  0  0  0  0  0  0
   -6.3845    1.5398   -0.5179 H   0  0  0  0  0  0  0  0  0  0  0  0
   -4.2564    1.9450   -1.7287 H   0  0  0  0  0  0  0  0  0  0  0  0
   -2.0839    1.5065   -0.6066 H   0  0  0  0  0  0  0  0  0  0  0  0
   -1.7315   -3.1212    0.7189 H   0  0  0  0  0  0  0  0  0  0  0  0
   -2.6947   -1.7433    1.2860 H   0  0  0  0  0  0  0  0  0  0  0  0
   -3.5885   -2.6470   -0.8909 H   0  0  0  0  0  0  0  0  0  0  0  0
   -3.0230   -0.9889   -1.1245 H   0  0  0  0  0  0  0  0  0  0  0  0
   -2.0316   -2.3484   -1.6810 H   0  0  0  0  0  0  0  0  0  0  0  0
    6.2662   -0.1992    1.0298 H   0  0  0  0  0  0  0  0  0  0  0  0
    6.3144    1.9620   -2.0705 H   0  0  0  0  0  0  0  0  0  0  0  0
    5.3257    2.8598   -0.9180 H   0  0  0  0  0  0  0  0  0  0  0  0
    6.8631    2.1419   -0.3899 H   0  0  0  0  0  0  0  0  0  0  0  0
  1  2  2  0
  2  3  1  0
  3  4  1  0
  4  5  1  0
  5  6  2  0
  6  7  1  0
  7  8  2  0
  8  9  1  0
  9 10  2  0
  8 11  1  0
 11 12  2  0
 11 13  1  0
 13 14  2  0
 14 15  1  0
 15 16  2  0
 16 17  1  0
 17 18  2  0
  7 19  1  0
 19 20  1  0
  3 21  1  0
 21 22  2  0
 21 23  1  0
 23 24  2  0
 24 25  1  0
 24  2  1  0
 10  5  1  0
 18 13  1  0
  4 26  1  0
  9 27  1  0
 14 28  1  0
 15 29  1  0
 16 30  1  0
 17 31  1  0
 18 32  1  0
 19 33  1  0
 19 34  1  0
 20 35  1  0
 20 36  1  0
 20 37  1  0
 23 38  1  0
 25 39  1  0
 25 40  1  0
 25 41  1  0
A    1
-0.435209
A    2
0.461818
A    3
-0.198374
A    4
-0.288998
A    5
0.504399
A    6
-0.474536
A    7
0.318830
A    8
-0.213290
A    9
0.161115
A   10
-0.427459
A   11
0.424406
A   12
-0.460544
A   13
-0.032991
A   14
-0.102195
A   15
-0.088943
A   16
-0.082135
A   17
-0.088469
A   18
-0.100478
A   19
-0.159124
A   20
-0.307677
A   21
0.519154
A   22
-0.450225
A   23
-0.274739
A   24
0.109704
A   25
-0.361507
A   26
0.302941
A   27
0.104313
A   28
0.115631
A   29
0.107214
A   30
0.107568
A   31
0.108606
A   32
0.105063
A   33
0.106123
A   34
0.086754
A   35
0.110049
A   36
0.093833
A   37
0.105928
A   38
0.171949
A   39
0.142672
A   40
0.143687
A   41
0.135140
M  END
$$$$
