
     RDKit          3D

 25 26  0  0  0  0  0  0  0  0999 V2000
   -2.4935    1.5329    3.2685 Cl  0  0  0  0  0  0  0  0  0  0  0  0
   -2.1870    0.8601    1.7289 C   0  0  0  0  0  0  0  0  0  0  0  0
   -1.1433   -0.0253    1.5739 C   0  0  0  0  0  0  0  0  0  0  0  0
   -0.8823   -0.5771    0.3093 C   0  0  0  0  0  0  0  0  0  0  0  0
    0.4916   -1.6225    0.1650 S   0  0  0  0  0  0  0  0  0  0  0  0
    0.7913   -2.2402    1.4266 O   0  0  0  0  0  0  0  0  0  0  0  0
    0.3745   -2.3739   -1.0678 O   0  0  0  0  0  0  0  0  0  0  0  0
    1.8167   -0.5008   -0.1103 N   0  0  0  0  0  0  0  0  0  0  0  0
    2.1524    0.1027   -1.3308 C   0  0  0  0  0  0  0  0  0  0  0  0
    3.2492    0.9237   -1.1271 C   0  0  0  0  0  0  0  0  0  0  0  0
    3.6150    0.8216    0.2527 C   0  0  0  0  0  0  0  0  0  0  0  0
    2.7320   -0.0589    0.8556 C   0  0  0  0  0  0  0  0  0  0  0  0
   -1.7228   -0.2431   -0.7774 C   0  0  0  0  0  0  0  0  0  0  0  0
   -1.5412   -0.7545   -2.0323 N   0  0  0  0  0  0  0  0  0  0  0  0
   -2.7884    0.6888   -0.5800 C   0  0  0  0  0  0  0  0  0  0  0  0
   -3.0138    1.2362    0.6607 C   0  0  0  0  0  0  0  0  0  0  0  0
   -0.5246   -0.2993    2.4425 H   0  0  0  0  0  0  0  0  0  0  0  0
    1.6068   -0.1015   -2.2312 H   0  0  0  0  0  0  0  0  0  0  0  0
    3.7452    1.5274   -1.8545 H   0  0  0  0  0  0  0  0  0  0  0  0
    4.4274    1.3370    0.7156 H   0  0  0  0  0  0  0  0  0  0  0  0
    2.6914   -0.4089    1.8714 H   0  0  0  0  0  0  0  0  0  0  0  0
   -0.8886   -1.5144   -2.2041 H   0  0  0  0  0  0  0  0  0  0  0  0
   -2.1822   -0.5396   -2.7662 H   0  0  0  0  0  0  0  0  0  0  0  0
   -3.4182    0.9601   -1.4226 H   0  0  0  0  0  0  0  0  0  0  0  0
   -3.8259    1.9508    0.8166 H   0  0  0  0  0  0  0  0  0  0  0  0
  1  2  1  0
  2  3  2  0
  3  4  1  0
  4  5  1  0
  5  6  2  0
  5  7  2  0
  5  8  1  0
  8  9  1  0
  9 10  2  0
 10 11  1  0
 11 12  2  0
  4 13  2  0
 13 14  1  0
 13 15  1  0
 15 16  2  0
 16  2  1  0
 12  8  1  0
  3 17  1  0
  9 18  1  0
 10 19  1  0
 11 20  1  0
 12 21  1  0
 14 22  1  0
 14 23  1  0
 15 24  1  0
 16 25  1  0
A    1
-0.137628
A    2
0.119090
A    3
-0.126410
A    4
-0.244992
A    5
1.136344
A    6
-0.526095
A    7
-0.540149
A    8
-0.169304
A    9
-0.060679
A   10
-0.179965
A   11
-0.190110
A   12
-0.058136
A   13
0.331938
A   14
-0.644058
A   15
-0.194890
A   16
-0.099839
A   17
0.136118
A   18
0.113407
A   19
0.133330
A   20
0.138282
A   21
0.125617
A   22
0.333120
A   23
0.337010
A   24
0.137086
A   25
0.130913
M  END
$$$$
