
     RDKit          3D

 41 43  0  0  0  0  0  0  0  0999 V2000
    3.5269    4.9932   -0.4813 N   0  0  0  0  0  0  0  0  0  0  0  0
    3.1850    3.9955    0.5636 C   0  0  1  0  0  0  0  0  0  0  0  0
    2.6938    4.7214    1.8231 C   0  0  0  0  0  0  0  0  0  0  0  0
    4.0513    5.1529    2.9756 S   0  0  0  0  0  0  0  0  0  0  0  0
    2.0371    3.1223   -0.0238 C   0  0  0  0  0  0  0  0  0  0  0  0
    1.9773    1.8452    0.7084 N   0  0  0  0  0  0  0  0  0  0  0  0
    0.9303    0.9611    0.4372 C   0  0  0  0  0  0  0  0  0  0  0  0
    0.1922    1.0109   -0.7587 C   0  0  0  0  0  0  0  0  0  0  0  0
   -0.7553    0.0314   -1.0252 C   0  0  0  0  0  0  0  0  0  0  0  0
   -0.9948   -0.9983   -0.1122 C   0  0  0  0  0  0  0  0  0  0  0  0
   -1.9996   -2.0242   -0.3986 C   0  0  0  0  0  0  0  0  0  0  0  0
   -1.9654   -2.7288   -1.6065 C   0  0  0  0  0  0  0  0  0  0  0  0
   -2.9161   -3.7107   -1.8709 C   0  0  0  0  0  0  0  0  0  0  0  0
   -3.9051   -4.0011   -0.9338 C   0  0  0  0  0  0  0  0  0  0  0  0
   -3.9444   -3.2932    0.2683 C   0  0  0  0  0  0  0  0  0  0  0  0
   -4.9834   -3.5823    1.3039 C   0  0  0  0  0  0  0  0  0  0  0  0
   -4.6649   -4.8308    2.0964 N   0  0  0  0  0  0  0  0  0  0  0  0
   -5.5931   -5.6416    1.9815 N   0  0  0  0  0  0  0  0  0  0  0  0
   -6.6376   -5.0986    1.1358 N   0  0  0  0  0  0  0  0  0  0  0  0
   -6.3308   -3.9652    0.7429 N   0  0  0  0  0  0  0  0  0  0  0  0
   -2.9972   -2.3056    0.5387 C   0  0  0  0  0  0  0  0  0  0  0  0
   -0.2670   -1.0429    1.0827 C   0  0  0  0  0  0  0  0  0  0  0  0
    0.6847   -0.0770    1.3629 C   0  0  0  0  0  0  0  0  0  0  0  0
    4.1410    5.7147   -0.1284 H   0  0  0  0  0  0  0  0  0  0  0  0
    3.9918    4.5537   -1.2674 H   0  0  0  0  0  0  0  0  0  0  0  0
    4.0568    3.3267    0.7969 H   0  0  0  0  0  0  0  0  0  0  0  0
    1.9870    4.0893    2.3974 H   0  0  0  0  0  0  0  0  0  0  0  0
    2.1159    5.6278    1.5464 H   0  0  0  0  0  0  0  0  0  0  0  0
    4.5674    6.2273    2.3599 H   0  0  0  0  0  0  0  0  0  0  0  0
    1.0727    3.6758    0.0085 H   0  0  0  0  0  0  0  0  0  0  0  0
    2.2423    2.9055   -1.0992 H   0  0  0  0  0  0  0  0  0  0  0  0
    2.2612    1.9084    1.6848 H   0  0  0  0  0  0  0  0  0  0  0  0
    0.3575    1.8067   -1.4801 H   0  0  0  0  0  0  0  0  0  0  0  0
   -1.3244    0.0719   -1.9568 H   0  0  0  0  0  0  0  0  0  0  0  0
   -1.1866   -2.5110   -2.3392 H   0  0  0  0  0  0  0  0  0  0  0  0
   -2.8861   -4.2578   -2.8151 H   0  0  0  0  0  0  0  0  0  0  0  0
   -4.6407   -4.7762   -1.1504 H   0  0  0  0  0  0  0  0  0  0  0  0
   -5.1267   -2.7167    2.0224 H   0  0  0  0  0  0  0  0  0  0  0  0
   -3.0276   -1.7481    1.4772 H   0  0  0  0  0  0  0  0  0  0  0  0
   -0.4490   -1.8500    1.7968 H   0  0  0  0  0  0  0  0  0  0  0  0
    1.2473   -0.1198    2.2928 H   0  0  0  0  0  0  0  0  0  0  0  0
  1  2  1  0
  2  3  1  0
  3  4  1  0
  2  5  1  0
  5  6  1  0
  6  7  1  0
  7  8  2  0
  8  9  1  0
  9 10  2  0
 10 11  1  0
 11 12  2  0
 12 13  1  0
 13 14  2  0
 14 15  1  0
 15 16  1  0
 16 17  1  0
 17 18  2  0
 18 19  1  0
 19 20  2  0
 15 21  2  0
 10 22  1  0
 22 23  2  0
 23  7  1  0
 21 11  1  0
 20 16  1  0
  1 24  1  0
  1 25  1  0
  2 26  1  1
  3 27  1  0
  3 28  1  0
  4 29  1  0
  5 30  1  0
  5 31  1  0
  6 32  1  0
  8 33  1  0
  9 34  1  0
 12 35  1  0
 13 36  1  0
 14 37  1  0
 16 38  1  0
 21 39  1  0
 22 40  1  0
 23 41  1  0
A    1
-0.711324
A    2
0.184420
A    3
-0.158118
A    4
-0.256611
A    5
-0.032375
A    6
-0.399604
A    7
0.241487
A    8
-0.218740
A    9
-0.119137
A   10
0.015411
A   11
0.084055
A   12
-0.133540
A   13
-0.074437
A   14
-0.135934
A   15
0.051678
A   16
0.109430
A   17
-0.127378
A   18
-0.046830
A   19
-0.044372
A   20
-0.128955
A   21
-0.184297
A   22
-0.123302
A   23
-0.212595
A   24
0.285584
A   25
0.291044
A   26
0.024632
A   27
0.118315
A   28
0.114258
A   29
0.145581
A   30
0.060740
A   31
0.077682
A   32
0.265818
A   33
0.113614
A   34
0.108277
A   35
0.109100
A   36
0.109028
A   37
0.113458
A   38
0.142624
A   39
0.115004
A   40
0.108383
A   41
0.117926
M  END
$$$$
