
     RDKit          3D

 41 42  0  0  0  0  0  0  0  0999 V2000
    4.2885   -0.8199    0.1093 O   0  0  0  0  0  0  0  0  0  0  0  0
    3.0251   -0.7493    0.5990 C   0  0  0  0  0  0  0  0  0  0  0  0
    3.0716   -0.8866    1.9431 O   0  0  0  0  0  0  0  0  0  0  0  0
    1.8730   -0.5781   -0.0717 C   0  0  0  0  0  0  0  0  0  0  0  0
    0.5478   -0.4839    0.5365 C   0  0  0  0  0  0  0  0  0  0  0  0
   -0.3918   -0.0007   -0.2028 N   0  0  0  0  0  0  0  0  0  0  0  0
   -1.7598    0.1521    0.2614 C   0  0  1  0  0  0  0  0  0  0  0  0
   -2.3312    1.5252   -0.2218 C   0  0  1  0  0  0  0  0  0  0  0  0
   -1.6829    1.9650   -1.5401 C   0  0  0  0  0  0  0  0  0  0  0  0
   -2.3039    3.2101   -1.8527 O   0  0  0  0  0  0  0  0  0  0  0  0
   -3.8396    1.2749   -0.4059 C   0  0  0  0  0  0  0  0  0  0  0  0
   -4.0284   -0.2358   -0.6428 C   0  0  0  0  0  0  0  0  0  0  0  0
   -2.6582   -0.9023   -0.4451 C   0  0  0  0  0  0  0  0  0  0  0  0
   -1.9003    0.0563    1.8015 C   0  0  0  0  0  0  0  0  0  0  0  0
   -1.0830   -1.1202    2.3385 C   0  0  0  0  0  0  0  0  0  0  0  0
    0.3921   -0.9448    1.9653 C   0  0  0  0  0  0  0  0  0  0  0  0
    4.4665   -0.5915   -1.2987 C   0  0  0  0  0  0  0  0  0  0  0  0
    5.9730   -0.6616   -1.4806 C   0  0  0  0  0  0  0  0  0  0  0  0
    4.0078   -0.9838    2.2719 H   0  0  0  0  0  0  0  0  0  0  0  0
    1.8720   -0.4666   -1.1572 H   0  0  0  0  0  0  0  0  0  0  0  0
   -2.1535    2.3193    0.5339 H   0  0  0  0  0  0  0  0  0  0  0  0
   -0.5955    2.1241   -1.4315 H   0  0  0  0  0  0  0  0  0  0  0  0
   -1.8789    1.2522   -2.3577 H   0  0  0  0  0  0  0  0  0  0  0  0
   -1.8865    3.6044   -2.6364 H   0  0  0  0  0  0  0  0  0  0  0  0
   -4.2348    1.8722   -1.2465 H   0  0  0  0  0  0  0  0  0  0  0  0
   -4.3971    1.6053    0.4853 H   0  0  0  0  0  0  0  0  0  0  0  0
   -4.7736   -0.6499    0.0552 H   0  0  0  0  0  0  0  0  0  0  0  0
   -4.4147   -0.4303   -1.6563 H   0  0  0  0  0  0  0  0  0  0  0  0
   -2.2111   -1.1786   -1.4173 H   0  0  0  0  0  0  0  0  0  0  0  0
   -2.7262   -1.8315    0.1363 H   0  0  0  0  0  0  0  0  0  0  0  0
   -2.9653   -0.0463    2.0728 H   0  0  0  0  0  0  0  0  0  0  0  0
   -1.5526    0.9963    2.2686 H   0  0  0  0  0  0  0  0  0  0  0  0
   -1.1933   -1.1976    3.4353 H   0  0  0  0  0  0  0  0  0  0  0  0
   -1.4676   -2.0728    1.9267 H   0  0  0  0  0  0  0  0  0  0  0  0
    0.9417   -1.8936    2.1264 H   0  0  0  0  0  0  0  0  0  0  0  0
    0.8766   -0.2036    2.6361 H   0  0  0  0  0  0  0  0  0  0  0  0
    4.0514    0.4011   -1.5523 H   0  0  0  0  0  0  0  0  0  0  0  0
    3.9325   -1.3867   -1.8498 H   0  0  0  0  0  0  0  0  0  0  0  0
    6.3716   -1.6346   -1.1621 H   0  0  0  0  0  0  0  0  0  0  0  0
    6.2525   -0.5121   -2.5302 H   0  0  0  0  0  0  0  0  0  0  0  0
    6.4865    0.1041   -0.8833 H   0  0  0  0  0  0  0  0  0  0  0  0
  1  2  1  0
  2  3  1  0
  2  4  2  0
  4  5  1  0
  5  6  2  0
  7  6  1  1
  7  8  1  0
  8  9  1  0
  9 10  1  0
  8 11  1  0
 11 12  1  0
 12 13  1  0
  7 14  1  0
 14 15  1  0
 15 16  1  0
  1 17  1  0
 17 18  1  0
 16  5  1  0
 13  7  1  0
  3 19  1  0
  4 20  1  0
  8 21  1  1
  9 22  1  0
  9 23  1  0
 10 24  1  0
 11 25  1  0
 11 26  1  0
 12 27  1  0
 12 28  1  0
 13 29  1  0
 13 30  1  0
 14 31  1  0
 14 32  1  0
 15 33  1  0
 15 34  1  0
 16 35  1  0
 16 36  1  0
 17 37  1  0
 17 38  1  0
 18 39  1  0
 18 40  1  0
 18 41  1  0
A    1
-0.299248
A    2
0.491072
A    3
-0.502705
A    4
-0.506819
A    5
0.343748
A    6
-0.451487
A    7
0.237289
A    8
-0.059998
A    9
0.101565
A   10
-0.565725
A   11
-0.147252
A   12
-0.114769
A   13
-0.194879
A   14
-0.204511
A   15
-0.112959
A   16
-0.200426
A   17
0.135835
A   18
-0.368130
A   19
0.412183
A   20
0.131240
A   21
0.058450
A   22
0.035701
A   23
0.040973
A   24
0.367817
A   25
0.071505
A   26
0.062746
A   27
0.059437
A   28
0.063634
A   29
0.073256
A   30
0.076588
A   31
0.083350
A   32
0.076441
A   33
0.068776
A   34
0.067126
A   35
0.094180
A   36
0.095269
A   37
0.063730
A   38
0.063242
A   39
0.117560
A   40
0.119130
A   41
0.117063
M  END
$$$$
