
     RDKit          3D

 35 37  0  0  0  0  0  0  0  0999 V2000
    6.7194    1.3354    0.4508 O   0  0  0  0  0  0  0  0  0  0  0  0
    5.6105    0.6591    0.0514 C   0  0  0  0  0  0  0  0  0  0  0  0
    4.4379    0.9908    0.7352 C   0  0  0  0  0  0  0  0  0  0  0  0
    3.2583    0.3389    0.3745 C   0  0  0  0  0  0  0  0  0  0  0  0
    3.2661   -0.6236   -0.6427 C   0  0  0  0  0  0  0  0  0  0  0  0
    4.4507   -0.9343   -1.3053 C   0  0  0  0  0  0  0  0  0  0  0  0
    5.6416   -0.2961   -0.9666 C   0  0  0  0  0  0  0  0  0  0  0  0
    2.0235    0.6858    1.0934 C   0  0  0  0  0  0  0  0  0  0  0  0
    0.8881    0.4680    0.5003 N   0  0  0  0  0  0  0  0  0  0  0  0
   -0.2628    0.8871    1.1047 N   0  0  0  0  0  0  0  0  0  0  0  0
   -1.4517    0.3560    0.5429 C   0  0  0  0  0  0  0  0  0  0  0  0
   -2.3906    0.0816    1.4409 N   0  0  0  0  0  0  0  0  0  0  0  0
   -3.6350   -0.2940    0.9905 C   0  0  0  0  0  0  0  0  0  0  0  0
   -3.8819   -0.4117   -0.4048 C   0  0  0  0  0  0  0  0  0  0  0  0
   -2.8880   -0.1359   -1.3187 N   0  0  0  0  0  0  0  0  0  0  0  0
   -1.6995    0.2414   -0.8957 C   0  0  0  0  0  0  0  0  0  0  0  0
   -0.6583    0.5520   -1.9088 C   0  0  0  0  0  0  0  0  0  0  0  0
   -5.1659   -0.8128   -0.8581 C   0  0  0  0  0  0  0  0  0  0  0  0
   -6.1512   -1.0789    0.0601 C   0  0  0  0  0  0  0  0  0  0  0  0
   -5.9035   -0.9595    1.4505 C   0  0  0  0  0  0  0  0  0  0  0  0
   -4.6718   -0.5753    1.9188 C   0  0  0  0  0  0  0  0  0  0  0  0
    7.5224    1.0716   -0.0591 H   0  0  0  0  0  0  0  0  0  0  0  0
    4.4658    1.7442    1.5182 H   0  0  0  0  0  0  0  0  0  0  0  0
    2.3389   -1.1280   -0.9150 H   0  0  0  0  0  0  0  0  0  0  0  0
    4.4470   -1.6843   -2.0966 H   0  0  0  0  0  0  0  0  0  0  0  0
    6.5654   -0.5366   -1.4796 H   0  0  0  0  0  0  0  0  0  0  0  0
    2.1518    1.1239    2.0910 H   0  0  0  0  0  0  0  0  0  0  0  0
   -0.2758    0.9737    2.1331 H   0  0  0  0  0  0  0  0  0  0  0  0
    0.1679   -0.1790   -1.8677 H   0  0  0  0  0  0  0  0  0  0  0  0
   -0.2074    1.5426   -1.7319 H   0  0  0  0  0  0  0  0  0  0  0  0
   -1.0618    0.5403   -2.9341 H   0  0  0  0  0  0  0  0  0  0  0  0
   -5.3350   -0.8983   -1.9323 H   0  0  0  0  0  0  0  0  0  0  0  0
   -7.1431   -1.3870   -0.2695 H   0  0  0  0  0  0  0  0  0  0  0  0
   -6.7133   -1.1793    2.1464 H   0  0  0  0  0  0  0  0  0  0  0  0
   -4.4591   -0.4776    2.9838 H   0  0  0  0  0  0  0  0  0  0  0  0
  1  2  1  0
  2  3  2  0
  3  4  1  0
  4  5  2  0
  5  6  1  0
  6  7  2  0
  4  8  1  0
  8  9  2  3
  9 10  1  0
 10 11  1  0
 11 12  2  0
 12 13  1  0
 13 14  2  0
 14 15  1  0
 15 16  2  0
 16 17  1  0
 14 18  1  0
 18 19  2  0
 19 20  1  0
 20 21  2  0
  7  2  1  0
 16 11  1  0
 21 13  1  0
  1 22  1  0
  3 23  1  0
  5 24  1  0
  6 25  1  0
  7 26  1  0
  8 27  1  0
 10 28  1  0
 17 29  1  0
 17 30  1  0
 17 31  1  0
 18 32  1  0
 19 33  1  0
 20 34  1  0
 21 35  1  0
A    1
-0.513399
A    2
0.334644
A    3
-0.273674
A    4
0.085546
A    5
-0.179203
A    6
-0.059903
A    7
-0.262302
A    8
-0.003530
A    9
-0.135101
A   10
-0.237954
A   11
0.268151
A   12
-0.423433
A   13
0.176365
A   14
0.150597
A   15
-0.367039
A   16
0.247216
A   17
-0.400928
A   18
-0.157422
A   19
-0.096954
A   20
-0.083091
A   21
-0.164529
A   22
0.408095
A   23
0.136154
A   24
0.106547
A   25
0.109067
A   26
0.126282
A   27
0.093352
A   28
0.272910
A   29
0.127406
A   30
0.134212
A   31
0.128606
A   32
0.119113
A   33
0.109069
A   34
0.106762
A   35
0.118369
M  END
$$$$
