
     RDKit          3D

 39 40  0  0  0  0  0  0  0  0999 V2000
    0.9077   -3.9539    0.7063 O   0  0  0  0  0  0  0  0  0  0  0  0
    0.8071   -2.8870    0.1540 C   0  0  0  0  0  0  0  0  0  0  0  0
    1.2138   -2.7186   -1.1197 O   0  0  0  0  0  0  0  0  0  0  0  0
    0.2319   -1.5958    0.7404 C   0  0  0  0  0  0  0  0  0  0  0  0
   -1.2943   -1.6090    0.4835 C   0  0  0  0  0  0  0  0  0  0  0  0
   -2.0068   -0.8442    1.5571 C   0  0  0  0  0  0  0  0  0  0  0  0
   -2.8501   -1.5059    2.4511 C   0  0  0  0  0  0  0  0  0  0  0  0
   -3.5096   -0.7886    3.4474 C   0  0  0  0  0  0  0  0  0  0  0  0
   -3.3297    0.5888    3.5546 C   0  0  0  0  0  0  0  0  0  0  0  0
   -2.4887    1.2503    2.6612 C   0  0  0  0  0  0  0  0  0  0  0  0
   -1.8300    0.5368    1.6648 C   0  0  0  0  0  0  0  0  0  0  0  0
    0.8059   -0.3773    0.1732 N   0  0  0  0  0  0  0  0  0  0  0  0
    2.1769   -0.0987    0.6472 C   0  0  0  0  0  0  0  0  0  0  0  0
    2.4166    1.3863    0.4542 C   0  0  0  0  0  0  0  0  0  0  0  0
    3.4204    1.7350   -0.2788 N   0  0  0  0  0  0  0  0  0  0  0  0
    3.5801    3.1009   -0.3839 O   0  0  0  0  0  0  0  0  0  0  0  0
    1.4644    2.3042    1.1255 C   0  0  0  0  0  0  0  0  0  0  0  0
    0.5213    3.0218    0.3775 C   0  0  0  0  0  0  0  0  0  0  0  0
   -0.3505    3.8706    1.0558 C   0  0  0  0  0  0  0  0  0  0  0  0
   -0.2597    3.9744    2.4423 C   0  0  0  0  0  0  0  0  0  0  0  0
    0.7088    3.2163    3.1113 C   0  0  0  0  0  0  0  0  0  0  0  0
    1.5597    2.3942    2.4685 N   0  0  0  0  0  0  0  0  0  0  0  0
    1.5913   -3.5380   -1.5436 H   0  0  0  0  0  0  0  0  0  0  0  0
    0.4230   -1.6159    1.8540 H   0  0  0  0  0  0  0  0  0  0  0  0
   -1.5226   -1.1669   -0.5126 H   0  0  0  0  0  0  0  0  0  0  0  0
   -1.6678   -2.6536    0.4263 H   0  0  0  0  0  0  0  0  0  0  0  0
   -2.9943   -2.5829    2.3740 H   0  0  0  0  0  0  0  0  0  0  0  0
   -4.1673   -1.3070    4.1439 H   0  0  0  0  0  0  0  0  0  0  0  0
   -3.8447    1.1480    4.3334 H   0  0  0  0  0  0  0  0  0  0  0  0
   -2.3438    2.3270    2.7437 H   0  0  0  0  0  0  0  0  0  0  0  0
   -1.1556    1.0496    0.9739 H   0  0  0  0  0  0  0  0  0  0  0  0
    0.7461   -0.3582   -0.8486 H   0  0  0  0  0  0  0  0  0  0  0  0
    2.2696   -0.3294    1.7391 H   0  0  0  0  0  0  0  0  0  0  0  0
    2.9519   -0.7061    0.1221 H   0  0  0  0  0  0  0  0  0  0  0  0
    4.4058    3.1863   -0.9642 H   0  0  0  0  0  0  0  0  0  0  0  0
    0.4738    2.9123   -0.7042 H   0  0  0  0  0  0  0  0  0  0  0  0
   -1.0964    4.4474    0.5052 H   0  0  0  0  0  0  0  0  0  0  0  0
   -0.9244    4.6323    2.9984 H   0  0  0  0  0  0  0  0  0  0  0  0
    0.8197    3.2586    4.2026 H   0  0  0  0  0  0  0  0  0  0  0  0
  1  2  2  0
  2  3  1  0
  2  4  1  0
  4  5  1  0
  5  6  1  0
  6  7  2  0
  7  8  1  0
  8  9  2  0
  9 10  1  0
 10 11  2  0
  4 12  1  0
 12 13  1  0
 13 14  1  0
 14 15  2  3
 15 16  1  0
 14 17  1  0
 17 18  2  0
 18 19  1  0
 19 20  2  0
 20 21  1  0
 21 22  2  0
 11  6  1  0
 22 17  1  0
  3 23  1  0
  4 24  1  0
  5 25  1  0
  5 26  1  0
  7 27  1  0
  8 28  1  0
  9 29  1  0
 10 30  1  0
 11 31  1  0
 12 32  1  0
 13 33  1  0
 13 34  1  0
 16 35  1  0
 18 36  1  0
 19 37  1  0
 20 38  1  0
 21 39  1  0
A    1
-0.566848
A    2
0.631658
A    3
-0.537317
A    4
0.025600
A    5
-0.204922
A    6
0.109496
A    7
-0.160748
A    8
-0.100135
A    9
-0.112907
A   10
-0.093330
A   11
-0.139514
A   12
-0.396772
A   13
-0.054516
A   14
0.132297
A   15
-0.196796
A   16
-0.381211
A   17
0.206819
A   18
-0.165424
A   19
-0.025828
A   20
-0.141873
A   21
0.101647
A   22
-0.363313
A   23
0.424927
A   24
0.091113
A   25
0.105717
A   26
0.093177
A   27
0.106347
A   28
0.101927
A   29
0.099155
A   30
0.087054
A   31
0.081935
A   32
0.256725
A   33
0.098685
A   34
0.066130
A   35
0.383525
A   36
0.126669
A   37
0.109697
A   38
0.116722
A   39
0.084435
M  END
$$$$
