
     RDKit          3D

 33 36  0  0  0  0  0  0  0  0999 V2000
    3.0356    3.3659    2.9973 N   0  0  0  0  0  0  0  0  0  0  0  0
    1.8251    3.0982    2.6136 N   0  0  0  0  0  0  0  0  0  0  0  0
    1.9150    2.0453    1.7475 N   0  0  0  0  0  0  0  0  0  0  0  0
    0.8519    1.4811    1.1240 N   0  0  0  0  0  0  0  0  0  0  0  0
    1.1374    0.4697    0.2986 C   0  0  0  0  0  0  0  0  0  0  0  0
    0.1663   -0.1384   -0.4897 N   0  0  0  0  0  0  0  0  0  0  0  0
   -1.1506    0.1244   -0.2397 N   0  0  0  0  0  0  0  0  0  0  0  0
   -2.0217   -0.5895   -0.8923 C   0  0  0  0  0  0  0  0  0  0  0  0
   -3.4525   -0.3168   -0.7381 C   0  0  0  0  0  0  0  0  0  0  0  0
   -3.9322    0.7042    0.0877 C   0  0  0  0  0  0  0  0  0  0  0  0
   -5.3036    0.9299    0.1861 C   0  0  0  0  0  0  0  0  0  0  0  0
   -6.1976    0.1407   -0.5344 C   0  0  0  0  0  0  0  0  0  0  0  0
   -5.7219   -0.8816   -1.3556 C   0  0  0  0  0  0  0  0  0  0  0  0
   -4.3543   -1.1121   -1.4580 C   0  0  0  0  0  0  0  0  0  0  0  0
    2.4993   -0.0114    0.1021 C   0  0  0  0  0  0  0  0  0  0  0  0
    2.9548   -1.0334   -0.6739 N   0  0  0  0  0  0  0  0  0  0  0  0
    4.2925   -1.0555   -0.5079 N   0  0  0  0  0  0  0  0  0  0  0  0
    4.7442   -0.0843    0.3633 C   0  0  0  0  0  0  0  0  0  0  0  0
    3.6062    0.6164    0.7815 C   0  0  0  0  0  0  0  0  0  0  0  0
    3.3017    1.6957    1.6387 C   0  0  0  0  0  0  0  0  0  0  0  0
    3.9613    2.5579    2.4456 N   0  0  0  0  0  0  0  0  0  0  0  0
    5.0739   -2.0580   -1.2128 C   0  0  0  0  0  0  0  0  0  0  0  0
    0.4461   -0.9925   -0.9856 H   0  0  0  0  0  0  0  0  0  0  0  0
   -1.7671   -1.4063   -1.5837 H   0  0  0  0  0  0  0  0  0  0  0  0
   -3.2277    1.3233    0.6524 H   0  0  0  0  0  0  0  0  0  0  0  0
   -5.6779    1.7266    0.8272 H   0  0  0  0  0  0  0  0  0  0  0  0
   -7.2681    0.3202   -0.4580 H   0  0  0  0  0  0  0  0  0  0  0  0
   -6.4209   -1.4980   -1.9177 H   0  0  0  0  0  0  0  0  0  0  0  0
   -3.9891   -1.9113   -2.1000 H   0  0  0  0  0  0  0  0  0  0  0  0
    5.7774    0.0562    0.6288 H   0  0  0  0  0  0  0  0  0  0  0  0
    6.1491   -1.9416   -0.9898 H   0  0  0  0  0  0  0  0  0  0  0  0
    4.9248   -1.9699   -2.3093 H   0  0  0  0  0  0  0  0  0  0  0  0
    4.7552   -3.0794   -0.9172 H   0  0  0  0  0  0  0  0  0  0  0  0
  1  2  2  0
  2  3  1  0
  3  4  1  0
  4  5  2  0
  5  6  1  0
  6  7  1  0
  7  8  2  3
  8  9  1  0
  9 10  2  0
 10 11  1  0
 11 12  2  0
 12 13  1  0
 13 14  2  0
  5 15  1  0
 15 16  2  0
 16 17  1  0
 17 18  1  0
 18 19  2  0
 19 20  1  0
 20 21  2  0
 17 22  1  0
 21  1  1  0
 20  3  1  0
 14  9  1  0
 19 15  1  0
  6 23  1  0
  8 24  1  0
 10 25  1  0
 11 26  1  0
 12 27  1  0
 13 28  1  0
 14 29  1  0
 18 30  1  0
 22 31  1  0
 22 32  1  0
 22 33  1  0
A    1
-0.083535
A    2
-0.171268
A    3
0.210256
A    4
-0.330420
A    5
0.293691
A    6
-0.209298
A    7
-0.144279
A    8
0.011870
A    9
0.056338
A   10
-0.116621
A   11
-0.092347
A   12
-0.090377
A   13
-0.098121
A   14
-0.138469
A   15
0.038710
A   16
-0.327589
A   17
0.252729
A   18
-0.088876
A   19
-0.078283
A   20
0.205612
A   21
-0.324678
A   22
-0.259818
A   23
0.281340
A   24
0.095757
A   25
0.108030
A   26
0.110268
A   27
0.105826
A   28
0.107660
A   29
0.107554
A   30
0.154582
A   31
0.141952
A   32
0.136238
A   33
0.135566
M  END
$$$$
