
     RDKit          3D

 44 45  0  0  0  0  0  0  0  0999 V2000
    3.4172    0.3177    1.0593 O   0  0  0  0  0  0  0  0  0  0  0  0
    2.7547   -0.1307    0.1486 C   0  0  0  0  0  0  0  0  0  0  0  0
    3.0291   -1.2640   -0.5432 O   0  0  0  0  0  0  0  0  0  0  0  0
    4.2511   -1.9883   -0.2647 C   0  0  0  0  0  0  0  0  0  0  0  0
    4.1460   -3.1267   -1.2871 C   0  0  0  0  0  0  0  0  0  0  0  0
    5.4494   -1.0889   -0.5372 C   0  0  0  0  0  0  0  0  0  0  0  0
    4.2110   -2.5061    1.1680 C   0  0  0  0  0  0  0  0  0  0  0  0
    1.6406    0.5002   -0.3989 N   0  0  0  0  0  0  0  0  0  0  0  0
    0.7730   -0.2857   -1.2997 C   0  0  0  0  0  0  0  0  0  0  0  0
   -0.6431    0.2978   -1.3527 C   0  0  0  0  0  0  0  0  0  0  0  0
   -1.2651    0.3105    0.0584 C   0  0  0  0  0  0  0  0  0  0  0  0
   -2.5175    1.0837    0.0279 N   0  0  0  0  0  0  0  0  0  0  0  0
   -2.5690    2.3952   -0.3639 N   0  0  0  0  0  0  0  0  0  0  0  0
   -3.7875    2.8053   -0.2942 N   0  0  0  0  0  0  0  0  0  0  0  0
   -4.6129    1.7648    0.1545 C   0  0  0  0  0  0  0  0  0  0  0  0
   -6.0566    1.9061    0.3242 C   0  0  0  0  0  0  0  0  0  0  0  0
   -6.7327    0.7950    0.5059 N   0  0  0  0  0  0  0  0  0  0  0  0
   -8.0988    1.0082    0.6314 O   0  0  0  0  0  0  0  0  0  0  0  0
   -6.5743    3.1969    0.3514 N   0  0  0  0  0  0  0  0  0  0  0  0
   -3.7887    0.6491    0.3635 C   0  0  0  0  0  0  0  0  0  0  0  0
   -0.2982    0.8959    1.1114 C   0  0  0  0  0  0  0  0  0  0  0  0
    0.9584    1.4861    0.4533 C   0  0  0  0  0  0  0  0  0  0  0  0
    3.2368   -3.7187   -1.1305 H   0  0  0  0  0  0  0  0  0  0  0  0
    5.0069   -3.7981   -1.2125 H   0  0  0  0  0  0  0  0  0  0  0  0
    4.1056   -2.7358   -2.3112 H   0  0  0  0  0  0  0  0  0  0  0  0
    5.3746   -0.6107   -1.5209 H   0  0  0  0  0  0  0  0  0  0  0  0
    6.3880   -1.6509   -0.5027 H   0  0  0  0  0  0  0  0  0  0  0  0
    5.5216   -0.2799    0.2069 H   0  0  0  0  0  0  0  0  0  0  0  0
    5.0332   -3.2018    1.3642 H   0  0  0  0  0  0  0  0  0  0  0  0
    4.2969   -1.6818    1.8935 H   0  0  0  0  0  0  0  0  0  0  0  0
    3.2696   -3.0240    1.3808 H   0  0  0  0  0  0  0  0  0  0  0  0
    0.7381   -1.3564   -0.9928 H   0  0  0  0  0  0  0  0  0  0  0  0
    1.2424   -0.2623   -2.3129 H   0  0  0  0  0  0  0  0  0  0  0  0
   -0.6179    1.3269   -1.7752 H   0  0  0  0  0  0  0  0  0  0  0  0
   -1.2710   -0.2869   -2.0507 H   0  0  0  0  0  0  0  0  0  0  0  0
   -1.5374   -0.7409    0.3518 H   0  0  0  0  0  0  0  0  0  0  0  0
   -8.4365    0.0675    0.7315 H   0  0  0  0  0  0  0  0  0  0  0  0
   -7.5620    3.3129    0.2367 H   0  0  0  0  0  0  0  0  0  0  0  0
   -5.9946    3.9398    0.0045 H   0  0  0  0  0  0  0  0  0  0  0  0
   -4.0331   -0.3396    0.7030 H   0  0  0  0  0  0  0  0  0  0  0  0
   -0.7948    1.6814    1.7169 H   0  0  0  0  0  0  0  0  0  0  0  0
   -0.0098    0.1078    1.8335 H   0  0  0  0  0  0  0  0  0  0  0  0
    1.6649    1.8687    1.2297 H   0  0  0  0  0  0  0  0  0  0  0  0
    0.6925    2.3613   -0.1879 H   0  0  0  0  0  0  0  0  0  0  0  0
  1  2  2  0
  2  3  1  0
  3  4  1  0
  4  5  1  0
  4  6  1  0
  4  7  1  0
  2  8  1  0
  8  9  1  0
  9 10  1  0
 10 11  1  0
 11 12  1  0
 12 13  1  0
 13 14  2  0
 14 15  1  0
 15 16  1  0
 16 17  2  3
 17 18  1  0
 16 19  1  0
 15 20  2  0
 11 21  1  0
 21 22  1  0
 22  8  1  0
 20 12  1  0
  5 23  1  0
  5 24  1  0
  5 25  1  0
  6 26  1  0
  6 27  1  0
  6 28  1  0
  7 29  1  0
  7 30  1  0
  7 31  1  0
  9 32  1  0
  9 33  1  0
 10 34  1  0
 10 35  1  0
 11 36  1  0
 18 37  1  0
 19 38  1  0
 19 39  1  0
 20 40  1  0
 21 41  1  0
 21 42  1  0
 22 43  1  0
 22 44  1  0
A    1
-0.591361
A    2
0.659759
A    3
-0.358015
A    4
0.452051
A    5
-0.424123
A    6
-0.437237
A    7
-0.435717
A    8
-0.237116
A    9
0.000196
A   10
-0.207869
A   11
0.112696
A   12
0.111833
A   13
-0.137382
A   14
-0.257141
A   15
0.027777
A   16
0.343156
A   17
-0.335974
A   18
-0.385451
A   19
-0.654672
A   20
-0.125325
A   21
-0.205199
A   22
-0.010619
A   23
0.120221
A   24
0.121482
A   25
0.120821
A   26
0.121944
A   27
0.126166
A   28
0.126983
A   29
0.123316
A   30
0.125780
A   31
0.119571
A   32
0.066802
A   33
0.074528
A   34
0.094779
A   35
0.106978
A   36
0.074866
A   37
0.382416
A   38
0.344681
A   39
0.329419
A   40
0.152876
A   41
0.104787
A   42
0.096614
A   43
0.093851
A   44
0.066853
M  END
$$$$
