
     RDKit          3D

 38 39  0  0  0  0  0  0  0  0999 V2000
   -0.9544    3.8030    1.9141 C   0  0  0  0  0  0  0  0  0  0  0  0
   -0.7477    2.4444    1.3427 C   0  0  0  0  0  0  0  0  0  0  0  0
    0.0229    1.5191    2.0080 C   0  0  0  0  0  0  0  0  0  0  0  0
    0.2305    0.2175    1.4869 C   0  0  0  0  0  0  0  0  0  0  0  0
    1.0445   -0.7255    2.1840 C   0  0  0  0  0  0  0  0  0  0  0  0
    1.7048   -0.3463    3.4398 C   0  0  0  0  0  0  0  0  0  0  0  0
    1.1963   -0.0727    4.5011 O   0  0  0  0  0  0  0  0  0  0  0  0
    3.0469   -0.3020    3.2863 O   0  0  0  0  0  0  0  0  0  0  0  0
    1.2137   -1.9891    1.6708 C   0  0  0  0  0  0  0  0  0  0  0  0
    1.9671   -2.8620    2.3647 O   0  0  0  0  0  0  0  0  0  0  0  0
    0.5828   -2.3540    0.4363 C   0  0  0  0  0  0  0  0  0  0  0  0
    0.8234   -3.6495    0.1004 O   0  0  0  0  0  0  0  0  0  0  0  0
   -0.1797   -1.4637   -0.2783 C   0  0  0  0  0  0  0  0  0  0  0  0
   -0.8027   -1.8599   -1.5911 C   0  0  0  0  0  0  0  0  0  0  0  0
    0.2654   -2.3159   -2.5935 C   0  0  0  0  0  0  0  0  0  0  0  0
   -1.8701   -2.9382   -1.3727 C   0  0  0  0  0  0  0  0  0  0  0  0
   -0.3706   -0.1458    0.2592 C   0  0  0  0  0  0  0  0  0  0  0  0
   -1.1604    0.8270   -0.4063 C   0  0  0  0  0  0  0  0  0  0  0  0
   -1.3506    2.0893    0.1040 C   0  0  0  0  0  0  0  0  0  0  0  0
   -2.1842    3.0803   -0.6314 C   0  0  0  0  0  0  0  0  0  0  0  0
   -0.5930    4.5886    1.2325 H   0  0  0  0  0  0  0  0  0  0  0  0
   -2.0221    4.0062    2.0937 H   0  0  0  0  0  0  0  0  0  0  0  0
   -0.4367    3.9491    2.8733 H   0  0  0  0  0  0  0  0  0  0  0  0
    0.4801    1.7856    2.9633 H   0  0  0  0  0  0  0  0  0  0  0  0
    3.5405   -0.0624    4.1193 H   0  0  0  0  0  0  0  0  0  0  0  0
    2.0480   -3.7427    1.8886 H   0  0  0  0  0  0  0  0  0  0  0  0
    0.5705   -3.8490   -0.8502 H   0  0  0  0  0  0  0  0  0  0  0  0
   -1.3183   -0.9710   -2.0514 H   0  0  0  0  0  0  0  0  0  0  0  0
   -0.1574   -2.4047   -3.6023 H   0  0  0  0  0  0  0  0  0  0  0  0
    0.6972   -3.2962   -2.3485 H   0  0  0  0  0  0  0  0  0  0  0  0
    1.0917   -1.5950   -2.6504 H   0  0  0  0  0  0  0  0  0  0  0  0
   -2.6682   -2.5738   -0.7124 H   0  0  0  0  0  0  0  0  0  0  0  0
   -1.4695   -3.8490   -0.9148 H   0  0  0  0  0  0  0  0  0  0  0  0
   -2.3376   -3.2273   -2.3217 H   0  0  0  0  0  0  0  0  0  0  0  0
   -1.6315    0.5599   -1.3562 H   0  0  0  0  0  0  0  0  0  0  0  0
   -3.0508    3.4011   -0.0322 H   0  0  0  0  0  0  0  0  0  0  0  0
   -1.6114    3.9891   -0.8746 H   0  0  0  0  0  0  0  0  0  0  0  0
   -2.5803    2.6911   -1.5794 H   0  0  0  0  0  0  0  0  0  0  0  0
  1  2  1  0
  2  3  2  0
  3  4  1  0
  4  5  2  0
  5  6  1  0
  6  7  2  0
  6  8  1  0
  5  9  1  0
  9 10  1  0
  9 11  2  0
 11 12  1  0
 11 13  1  0
 13 14  1  0
 14 15  1  0
 14 16  1  0
 13 17  2  0
 17 18  1  0
 18 19  2  0
 19 20  1  0
 19  2  1  0
 17  4  1  0
  1 21  1  0
  1 22  1  0
  1 23  1  0
  3 24  1  0
  8 25  1  0
 10 26  1  0
 12 27  1  0
 14 28  1  0
 15 29  1  0
 15 30  1  0
 15 31  1  0
 16 32  1  0
 16 33  1  0
 16 34  1  0
 18 35  1  0
 20 36  1  0
 20 37  1  0
 20 38  1  0
A    1
-0.365186
A    2
0.103704
A    3
-0.217102
A    4
0.054085
A    5
-0.239148
A    6
0.697853
A    7
-0.561878
A    8
-0.550135
A    9
0.219177
A   10
-0.456580
A   11
0.142251
A   12
-0.482771
A   13
-0.094347
A   14
0.105744
A   15
-0.364632
A   16
-0.370595
A   17
0.022209
A   18
-0.219149
A   19
0.101103
A   20
-0.362995
A   21
0.114278
A   22
0.114848
A   23
0.120281
A   24
0.110981
A   25
0.425114
A   26
0.400237
A   27
0.381241
A   28
0.064150
A   29
0.120787
A   30
0.092575
A   31
0.120441
A   32
0.116353
A   33
0.101930
A   34
0.111656
A   35
0.100438
A   36
0.113922
A   37
0.113450
A   38
0.115708
M  END
$$$$
