
     RDKit          3D

 36 37  0  0  0  0  0  0  0  0999 V2000
    5.0144   -0.3995   -0.8492 S   0  0  0  0  0  0  0  0  0  0  0  0
    4.9969   -1.7793   -1.2728 O   0  0  0  0  0  0  0  0  0  0  0  0
    5.9065    0.5572   -1.4732 O   0  0  0  0  0  0  0  0  0  0  0  0
    3.3782    0.2667   -1.0085 C   0  0  0  0  0  0  0  0  0  0  0  0
    2.2832   -0.4078   -0.4800 C   0  0  0  0  0  0  0  0  0  0  0  0
    1.0035    0.1514   -0.5866 C   0  0  0  0  0  0  0  0  0  0  0  0
   -0.1488   -0.5294    0.0198 C   0  0  0  0  0  0  0  0  0  0  0  0
   -0.0629   -1.8770    0.1555 N   0  0  0  0  0  0  0  0  0  0  0  0
   -1.1153   -2.5190    0.7100 C   0  0  0  0  0  0  0  0  0  0  0  0
   -2.2542   -1.9253    1.1437 N   0  0  0  0  0  0  0  0  0  0  0  0
   -2.3416   -0.5833    1.0174 C   0  0  0  0  0  0  0  0  0  0  0  0
   -1.2876    0.1604    0.4599 C   0  0  0  0  0  0  0  0  0  0  0  0
   -3.6030    0.0638    1.4957 C   0  0  0  0  0  0  0  0  0  0  0  0
   -4.3977    0.6207    0.3039 C   0  0  0  0  0  0  0  0  0  0  0  0
   -5.6461    1.3529    0.7898 C   0  0  0  0  0  0  0  0  0  0  0  0
   -1.0189   -3.9455    0.8527 C   0  0  0  0  0  0  0  0  0  0  0  0
   -0.9427   -5.0921    0.9696 N   0  0  0  0  0  0  0  0  0  0  0  0
    0.8257    1.3560   -1.2759 C   0  0  0  0  0  0  0  0  0  0  0  0
    1.9231    2.0105   -1.8265 C   0  0  0  0  0  0  0  0  0  0  0  0
    3.2018    1.4707   -1.6864 C   0  0  0  0  0  0  0  0  0  0  0  0
    5.3244   -0.3690    0.9052 C   0  0  0  0  0  0  0  0  0  0  0  0
    2.3930   -1.3853    0.0106 H   0  0  0  0  0  0  0  0  0  0  0  0
   -1.3588    1.2409    0.3849 H   0  0  0  0  0  0  0  0  0  0  0  0
   -4.2317   -0.6653    2.0580 H   0  0  0  0  0  0  0  0  0  0  0  0
   -3.3684    0.8718    2.2193 H   0  0  0  0  0  0  0  0  0  0  0  0
   -3.7672    1.3032   -0.2970 H   0  0  0  0  0  0  0  0  0  0  0  0
   -4.6835   -0.2080   -0.3754 H   0  0  0  0  0  0  0  0  0  0  0  0
   -5.3938    2.2041    1.4320 H   0  0  0  0  0  0  0  0  0  0  0  0
   -6.3055    0.6898    1.3629 H   0  0  0  0  0  0  0  0  0  0  0  0
   -6.2300    1.7412   -0.0533 H   0  0  0  0  0  0  0  0  0  0  0  0
   -0.1713    1.7798   -1.3960 H   0  0  0  0  0  0  0  0  0  0  0  0
    1.7839    2.9433   -2.3701 H   0  0  0  0  0  0  0  0  0  0  0  0
    4.0594    2.0026   -2.1218 H   0  0  0  0  0  0  0  0  0  0  0  0
    6.3904   -0.5386    1.1151 H   0  0  0  0  0  0  0  0  0  0  0  0
    5.0698    0.5928    1.3619 H   0  0  0  0  0  0  0  0  0  0  0  0
    4.7749   -1.1551    1.4376 H   0  0  0  0  0  0  0  0  0  0  0  0
  1  2  2  0
  1  3  2  0
  1  4  1  0
  4  5  2  0
  5  6  1  0
  6  7  1  0
  7  8  2  0
  8  9  1  0
  9 10  2  0
 10 11  1  0
 11 12  2  0
 11 13  1  0
 13 14  1  0
 14 15  1  0
  9 16  1  0
 16 17  3  0
  6 18  2  0
 18 19  1  0
 19 20  2  0
  1 21  1  0
 20  4  1  0
 12  7  1  0
  5 22  1  0
 12 23  1  0
 13 24  1  0
 13 25  1  0
 14 26  1  0
 14 27  1  0
 15 28  1  0
 15 29  1  0
 15 30  1  0
 18 31  1  0
 19 32  1  0
 20 33  1  0
 21 34  1  0
 21 35  1  0
 21 36  1  0
A    1
1.142600
A    2
-0.590257
A    3
-0.599768
A    4
-0.104480
A    5
-0.094935
A    6
0.022750
A    7
0.272927
A    8
-0.392873
A    9
0.366395
A   10
-0.416495
A   11
0.334243
A   12
-0.259857
A   13
-0.212126
A   14
-0.061484
A   15
-0.325516
A   16
0.239006
A   17
-0.374322
A   18
-0.092754
A   19
-0.081406
A   20
-0.070088
A   21
-0.524961
A   22
0.116854
A   23
0.140193
A   24
0.103399
A   25
0.104008
A   26
0.066121
A   27
0.075079
A   28
0.100477
A   29
0.104468
A   30
0.102030
A   31
0.114942
A   32
0.121411
A   33
0.127749
A   34
0.189158
A   35
0.178319
A   36
0.179194
M  END
$$$$
