
     RDKit          3D

 56 56  0  0  0  0  0  0  0  0999 V2000
   -2.6795    2.8008    1.4102 C   0  0  0  0  0  0  0  0  0  0  0  0
   -1.5329    3.5894    0.8842 C   0  0  0  0  0  0  0  0  0  0  0  0
   -1.5648    4.9836    0.9800 C   0  0  0  0  0  0  0  0  0  0  0  0
   -0.4954    5.7516    0.5341 C   0  0  0  0  0  0  0  0  0  0  0  0
    0.6295    5.1358   -0.0083 C   0  0  0  0  0  0  0  0  0  0  0  0
    0.6851    3.7486   -0.1302 C   0  0  0  0  0  0  0  0  0  0  0  0
    1.9010    3.1048   -0.7000 C   0  0  0  0  0  0  0  0  0  0  0  0
   -0.4107    2.9764    0.3010 C   0  0  0  0  0  0  0  0  0  0  0  0
   -0.3360    1.5572    0.1793 N   0  0  0  0  0  0  0  0  0  0  0  0
   -1.2830    0.8306   -0.5140 C   0  0  0  0  0  0  0  0  0  0  0  0
   -2.2248    1.3812   -1.0554 O   0  0  0  0  0  0  0  0  0  0  0  0
   -1.1450   -0.7032   -0.5743 C   0  0  0  0  0  0  0  0  0  0  0  0
   -0.3677   -1.2978    0.6340 C   0  0  0  0  0  0  0  0  0  0  0  0
   -1.0533   -2.5606    1.0172 N   0  0  0  0  0  0  0  0  0  0  0  0
   -0.4737   -3.6874    0.2564 C   0  0  0  0  0  0  0  0  0  0  0  0
   -1.0120   -2.7741    2.4958 C   0  0  0  0  0  0  0  0  0  0  0  0
   -1.9512   -1.7431    3.1534 C   0  0  0  0  0  0  0  0  0  0  0  0
   -1.5027   -4.1854    2.8609 C   0  0  0  0  0  0  0  0  0  0  0  0
   -0.5731   -1.1764   -1.8433 N   0  0  0  0  0  0  0  0  0  0  0  0
   -1.5941   -1.2049   -2.9092 C   0  0  0  0  0  0  0  0  0  0  0  0
    0.6999   -0.5310   -2.2471 C   0  0  0  0  0  0  0  0  0  0  0  0
    0.5430    0.6880   -3.1714 C   0  0  0  0  0  0  0  0  0  0  0  0
    1.5571   -1.6053   -2.9426 C   0  0  0  0  0  0  0  0  0  0  0  0
   -2.3622    1.8534    1.8697 H   0  0  0  0  0  0  0  0  0  0  0  0
   -3.3772    2.5342    0.5947 H   0  0  0  0  0  0  0  0  0  0  0  0
   -3.2604    3.3487    2.1641 H   0  0  0  0  0  0  0  0  0  0  0  0
   -2.4374    5.4723    1.4128 H   0  0  0  0  0  0  0  0  0  0  0  0
   -0.5350    6.8381    0.6135 H   0  0  0  0  0  0  0  0  0  0  0  0
    1.4701    5.7429   -0.3424 H   0  0  0  0  0  0  0  0  0  0  0  0
    1.6518    2.3851   -1.4950 H   0  0  0  0  0  0  0  0  0  0  0  0
    2.5969    3.8313   -1.1451 H   0  0  0  0  0  0  0  0  0  0  0  0
    2.4674    2.5592    0.0709 H   0  0  0  0  0  0  0  0  0  0  0  0
    0.5246    1.1270    0.5048 H   0  0  0  0  0  0  0  0  0  0  0  0
   -2.2056   -1.1033   -0.5018 H   0  0  0  0  0  0  0  0  0  0  0  0
   -0.3901   -0.5871    1.4876 H   0  0  0  0  0  0  0  0  0  0  0  0
    0.7012   -1.4542    0.3770 H   0  0  0  0  0  0  0  0  0  0  0  0
   -1.1521   -4.5526    0.3127 H   0  0  0  0  0  0  0  0  0  0  0  0
    0.5246   -3.9964    0.5966 H   0  0  0  0  0  0  0  0  0  0  0  0
   -0.3990   -3.4036   -0.8123 H   0  0  0  0  0  0  0  0  0  0  0  0
    0.0268   -2.6411    2.8930 H   0  0  0  0  0  0  0  0  0  0  0  0
   -2.9357   -1.7536    2.6692 H   0  0  0  0  0  0  0  0  0  0  0  0
   -2.0964   -1.9634    4.2153 H   0  0  0  0  0  0  0  0  0  0  0  0
   -1.5623   -0.7222    3.0824 H   0  0  0  0  0  0  0  0  0  0  0  0
   -1.6511   -4.2797    3.9422 H   0  0  0  0  0  0  0  0  0  0  0  0
   -2.4607   -4.4084    2.3761 H   0  0  0  0  0  0  0  0  0  0  0  0
   -0.7880   -4.9597    2.5648 H   0  0  0  0  0  0  0  0  0  0  0  0
   -1.1381   -1.5377   -3.8551 H   0  0  0  0  0  0  0  0  0  0  0  0
   -2.0880   -0.2333   -3.0810 H   0  0  0  0  0  0  0  0  0  0  0  0
   -2.3679   -1.9446   -2.6390 H   0  0  0  0  0  0  0  0  0  0  0  0
    1.2381   -0.2077   -1.3166 H   0  0  0  0  0  0  0  0  0  0  0  0
    1.5088    1.1758   -3.3428 H   0  0  0  0  0  0  0  0  0  0  0  0
   -0.1437    1.4331   -2.7523 H   0  0  0  0  0  0  0  0  0  0  0  0
    0.1505    0.4079   -4.1556 H   0  0  0  0  0  0  0  0  0  0  0  0
    2.5661   -1.2327   -3.1421 H   0  0  0  0  0  0  0  0  0  0  0  0
    1.6411   -2.5007   -2.3149 H   0  0  0  0  0  0  0  0  0  0  0  0
    1.1189   -1.9203   -3.8952 H   0  0  0  0  0  0  0  0  0  0  0  0
  1  2  1  0
  2  3  2  0
  3  4  1  0
  4  5  2  0
  5  6  1  0
  6  7  1  0
  6  8  2  0
  8  9  1  0
  9 10  1  0
 10 11  2  0
 10 12  1  0
 12 13  1  0
 13 14  1  0
 14 15  1  0
 14 16  1  0
 16 17  1  0
 16 18  1  0
 12 19  1  0
 19 20  1  0
 19 21  1  0
 21 22  1  0
 21 23  1  0
  8  2  1  0
  1 24  1  0
  1 25  1  0
  1 26  1  0
  3 27  1  0
  4 28  1  0
  5 29  1  0
  7 30  1  0
  7 31  1  0
  7 32  1  0
  9 33  1  0
 12 34  1  0
 13 35  1  0
 13 36  1  0
 15 37  1  0
 15 38  1  0
 15 39  1  0
 16 40  1  0
 17 41  1  0
 17 42  1  0
 17 43  1  0
 18 44  1  0
 18 45  1  0
 18 46  1  0
 20 47  1  0
 20 48  1  0
 20 49  1  0
 21 50  1  0
 22 51  1  0
 22 52  1  0
 22 53  1  0
 23 54  1  0
 23 55  1  0
 23 56  1  0
A    1
-0.361041
A    2
0.093992
A    3
-0.169837
A    4
-0.100636
A    5
-0.172484
A    6
0.081958
A    7
-0.368551
A    8
0.104685
A    9
-0.416193
A   10
0.507255
A   11
-0.541555
A   12
-0.039029
A   13
-0.085373
A   14
-0.189405
A   15
-0.221883
A   16
0.200254
A   17
-0.383364
A   18
-0.382079
A   19
-0.178561
A   20
-0.224202
A   21
0.199921
A   22
-0.398420
A   23
-0.389494
A   24
0.111044
A   25
0.127612
A   26
0.113196
A   27
0.109919
A   28
0.102971
A   29
0.106236
A   30
0.113830
A   31
0.123970
A   32
0.116653
A   33
0.284565
A   34
0.083839
A   35
0.064656
A   36
0.063158
A   37
0.092469
A   38
0.070738
A   39
0.093141
A   40
0.016492
A   41
0.111595
A   42
0.109644
A   43
0.102443
A   44
0.113214
A   45
0.113031
A   46
0.104948
A   47
0.098424
A   48
0.086694
A   49
0.099486
A   50
0.028977
A   51
0.113732
A   52
0.112876
A   53
0.116337
A   54
0.109547
A   55
0.107095
A   56
0.111510
M  END
$$$$
