
     RDKit          3D

 45 47  0  0  0  0  0  0  0  0999 V2000
   -4.5946   -0.0077    0.4108 O   0  0  0  0  0  0  0  0  0  0  0  0
   -4.0951    0.3856    1.4393 C   0  0  0  0  0  0  0  0  0  0  0  0
   -2.8961   -0.0311    1.9473 O   0  0  0  0  0  0  0  0  0  0  0  0
   -2.2640   -1.1065    1.2562 C   0  0  0  0  0  0  0  0  0  0  0  0
   -1.5567   -0.5753   -0.0067 C   0  0  0  0  0  0  0  0  0  0  0  0
   -1.4060   -1.7336   -0.8137 O   0  0  0  0  0  0  0  0  0  0  0  0
   -1.4865   -1.5110   -2.2116 C   0  0  0  0  0  0  0  0  0  0  0  0
   -0.2660   -0.7741   -2.7429 C   0  0  0  0  0  0  0  0  0  0  0  0
   -0.1857   -0.0484    0.2862 C   0  0  0  0  0  0  0  0  0  0  0  0
    0.8238   -1.0683    0.6354 C   0  0  0  0  0  0  0  0  0  0  0  0
    0.6162   -2.0190    1.3435 O   0  0  0  0  0  0  0  0  0  0  0  0
    2.2104   -0.7874    0.0974 C   0  0  0  0  0  0  0  0  0  0  0  0
    2.8963   -1.8721   -0.4511 N   0  0  0  0  0  0  0  0  0  0  0  0
    4.2098   -2.3207    0.0529 C   0  0  0  0  0  0  0  0  0  0  0  0
    2.9755   -3.1775    0.2293 C   0  0  0  0  0  0  0  0  0  0  0  0
    2.6208    0.4995    0.0430 C   0  0  0  0  0  0  0  0  0  0  0  0
    1.6680    1.5646    0.4235 C   0  0  0  0  0  0  0  0  0  0  0  0
    1.9940    2.6197    0.9032 O   0  0  0  0  0  0  0  0  0  0  0  0
    0.2097    1.2366    0.1738 C   0  0  0  0  0  0  0  0  0  0  0  0
   -0.5609    2.2751   -0.3507 N   0  0  0  0  0  0  0  0  0  0  0  0
   -0.6067    3.6089    0.2770 C   0  0  0  0  0  0  0  0  0  0  0  0
   -1.8260    2.7143    0.2677 C   0  0  0  0  0  0  0  0  0  0  0  0
    3.9498    0.9698   -0.4093 C   0  0  0  0  0  0  0  0  0  0  0  0
   -4.6224    1.3586    2.2588 N   0  0  0  0  0  0  0  0  0  0  0  0
   -1.5620   -1.4839    2.0266 H   0  0  0  0  0  0  0  0  0  0  0  0
   -2.9964   -1.8930    0.9939 H   0  0  0  0  0  0  0  0  0  0  0  0
   -2.1971    0.1830   -0.5179 H   0  0  0  0  0  0  0  0  0  0  0  0
   -2.4296   -0.9923   -2.4575 H   0  0  0  0  0  0  0  0  0  0  0  0
   -1.5340   -2.5546   -2.5818 H   0  0  0  0  0  0  0  0  0  0  0  0
   -0.2070   -0.8277   -3.8340 H   0  0  0  0  0  0  0  0  0  0  0  0
    0.6617   -1.2056   -2.3400 H   0  0  0  0  0  0  0  0  0  0  0  0
   -0.2761    0.2871   -2.4625 H   0  0  0  0  0  0  0  0  0  0  0  0
    4.9466   -2.5589   -0.7180 H   0  0  0  0  0  0  0  0  0  0  0  0
    4.6707   -1.8407    0.9161 H   0  0  0  0  0  0  0  0  0  0  0  0
    2.5342   -3.3264    1.2184 H   0  0  0  0  0  0  0  0  0  0  0  0
    2.7987   -4.0434   -0.4151 H   0  0  0  0  0  0  0  0  0  0  0  0
   -0.5246    4.4493   -0.4176 H   0  0  0  0  0  0  0  0  0  0  0  0
   -0.0671    3.8100    1.2055 H   0  0  0  0  0  0  0  0  0  0  0  0
   -2.1787    2.2546    1.1934 H   0  0  0  0  0  0  0  0  0  0  0  0
   -2.6482    2.8974   -0.4297 H   0  0  0  0  0  0  0  0  0  0  0  0
    4.7280    0.1990   -0.3325 H   0  0  0  0  0  0  0  0  0  0  0  0
    4.2915    1.8449    0.1697 H   0  0  0  0  0  0  0  0  0  0  0  0
    3.9152    1.2790   -1.4684 H   0  0  0  0  0  0  0  0  0  0  0  0
   -4.2055    1.5886    3.1360 H   0  0  0  0  0  0  0  0  0  0  0  0
   -5.5271    1.7341    2.0557 H   0  0  0  0  0  0  0  0  0  0  0  0
  1  2  2  0
  2  3  1  0
  3  4  1  0
  4  5  1  0
  5  6  1  0
  6  7  1  0
  7  8  1  0
  5  9  1  0
  9 10  1  0
 10 11  2  0
 10 12  1  0
 12 13  1  0
 13 14  1  0
 14 15  1  0
 12 16  2  0
 16 17  1  0
 17 18  2  0
 17 19  1  0
 19 20  1  0
 20 21  1  0
 21 22  1  0
 16 23  1  0
  2 24  1  0
  9 19  2  0
 15 13  1  0
 22 20  1  0
  4 25  1  0
  4 26  1  0
  5 27  1  0
  7 28  1  0
  7 29  1  0
  8 30  1  0
  8 31  1  0
  8 32  1  0
 14 33  1  0
 14 34  1  0
 15 35  1  0
 15 36  1  0
 21 37  1  0
 21 38  1  0
 22 39  1  0
 22 40  1  0
 23 41  1  0
 23 42  1  0
 23 43  1  0
 24 44  1  0
 24 45  1  0
A    1
-0.614675
A    2
0.779353
A    3
-0.331042
A    4
0.018849
A    5
0.160026
A    6
-0.304290
A    7
0.119373
A    8
-0.372098
A    9
-0.206819
A   10
0.395238
A   11
-0.417410
A   12
0.035360
A   13
-0.131595
A   14
-0.132279
A   15
-0.122825
A   16
-0.070199
A   17
0.381188
A   18
-0.431864
A   19
0.062566
A   20
-0.139972
A   21
-0.118668
A   22
-0.124813
A   23
-0.333106
A   24
-0.758599
A   25
0.088895
A   26
0.083095
A   27
0.054059
A   28
0.046166
A   29
0.060764
A   30
0.115691
A   31
0.109197
A   32
0.104202
A   33
0.111415
A   34
0.119339
A   35
0.120364
A   36
0.113647
A   37
0.111998
A   38
0.121766
A   39
0.099860
A   40
0.111067
A   41
0.114083
A   42
0.120115
A   43
0.124075
A   44
0.357733
A   45
0.370768
M  END
$$$$
