
     RDKit          3D

 46 47  0  0  0  0  0  0  0  0999 V2000
    3.8054   -0.2636    1.7650 O   0  0  0  0  0  0  0  0  0  0  0  0
    3.8251   -0.1694    0.5619 C   0  0  0  0  0  0  0  0  0  0  0  0
    4.7740    0.4743   -0.1836 N   0  0  0  0  0  0  0  0  0  0  0  0
    4.7200    0.4642   -1.5274 C   0  0  0  0  0  0  0  0  0  0  0  0
    5.7090    1.1544   -2.1714 N   0  0  0  0  0  0  0  0  0  0  0  0
    3.6932   -0.2257   -2.2550 C   0  0  0  0  0  0  0  0  0  0  0  0
    2.7145   -0.8579   -1.5269 C   0  0  0  0  0  0  0  0  0  0  0  0
    2.7178   -0.8064   -0.1627 N   0  0  0  0  0  0  0  0  0  0  0  0
    1.6572   -1.4952    0.6148 C   0  0  2  0  0  0  0  0  0  0  0  0
    0.6457   -1.8475   -0.3000 O   0  0  0  0  0  0  0  0  0  0  0  0
   -0.5362   -1.0461   -0.1313 C   0  0  1  0  0  0  0  0  0  0  0  0
   -1.6329   -1.8938   -0.5293 N   0  0  0  0  0  0  0  0  0  0  0  0
   -1.9836   -2.8835    0.1427 N   0  0  0  0  0  0  0  0  0  0  0  0
   -2.4473   -3.8214    0.5785 N   0  0  0  0  0  0  0  0  0  0  0  0
   -0.4825   -0.5623    1.3542 C   0  0  1  0  0  0  0  0  0  0  0  0
   -1.2880   -1.4053    2.1274 O   0  0  0  0  0  0  0  0  0  0  0  0
    1.0180   -0.5906    1.7035 C   0  0  1  0  0  0  0  0  0  0  0  0
    1.2965   -1.1154    3.1019 C   0  0  0  0  0  0  0  0  0  0  0  0
   -0.4986    0.1333   -1.1399 C   0  0  0  0  0  0  0  0  0  0  0  0
   -1.2957    1.1799   -0.6568 O   0  0  0  0  0  0  0  0  0  0  0  0
   -2.6730    1.1161   -1.0355 C   0  0  0  0  0  0  0  0  0  0  0  0
   -3.4098    1.8737    0.0829 C   0  0  0  0  0  0  0  0  0  0  0  0
   -4.5582    2.6924   -0.5150 C   0  0  0  0  0  0  0  0  0  0  0  0
   -3.9427    0.8995    1.1360 C   0  0  0  0  0  0  0  0  0  0  0  0
    5.7664    1.1762   -3.1638 H   0  0  0  0  0  0  0  0  0  0  0  0
    6.4246    1.6169   -1.6410 H   0  0  0  0  0  0  0  0  0  0  0  0
    3.6993   -0.2524   -3.3341 H   0  0  0  0  0  0  0  0  0  0  0  0
    1.9050   -1.4182   -2.0259 H   0  0  0  0  0  0  0  0  0  0  0  0
    2.0627   -2.4642    0.9975 H   0  0  0  0  0  0  0  0  0  0  0  0
   -0.9547    0.4399    1.4847 H   0  0  0  0  0  0  0  0  0  0  0  0
   -0.7824   -2.1343    2.5467 H   0  0  0  0  0  0  0  0  0  0  0  0
    1.4268    0.4508    1.6278 H   0  0  0  0  0  0  0  0  0  0  0  0
    1.0801   -2.1823    3.2195 H   0  0  0  0  0  0  0  0  0  0  0  0
    0.7185   -0.5639    3.8568 H   0  0  0  0  0  0  0  0  0  0  0  0
    2.3630   -0.9783    3.3622 H   0  0  0  0  0  0  0  0  0  0  0  0
    0.5160    0.5793   -1.1668 H   0  0  0  0  0  0  0  0  0  0  0  0
   -0.7850   -0.1878   -2.1564 H   0  0  0  0  0  0  0  0  0  0  0  0
   -2.7498    1.6202   -2.0138 H   0  0  0  0  0  0  0  0  0  0  0  0
   -3.0201    0.0746   -1.1344 H   0  0  0  0  0  0  0  0  0  0  0  0
   -2.6795    2.5706    0.5692 H   0  0  0  0  0  0  0  0  0  0  0  0
   -5.1124    3.2225    0.2682 H   0  0  0  0  0  0  0  0  0  0  0  0
   -4.1916    3.4451   -1.2210 H   0  0  0  0  0  0  0  0  0  0  0  0
   -5.2742    2.0550   -1.0453 H   0  0  0  0  0  0  0  0  0  0  0  0
   -4.7041    0.2297    0.7220 H   0  0  0  0  0  0  0  0  0  0  0  0
   -3.1415    0.2665    1.5406 H   0  0  0  0  0  0  0  0  0  0  0  0
   -4.3948    1.4309    1.9798 H   0  0  0  0  0  0  0  0  0  0  0  0
  1  2  2  0
  2  3  1  0
  3  4  2  0
  4  5  1  0
  4  6  1  0
  6  7  2  0
  7  8  1  0
  8  9  1  0
  9 10  1  0
 10 11  1  0
 11 12  1  1
 12 13  2  3
 13 14  2  0
 11 15  1  0
 15 16  1  0
 15 17  1  0
 17 18  1  0
 11 19  1  0
 19 20  1  0
 20 21  1  0
 21 22  1  0
 22 23  1  0
 22 24  1  0
  8  2  1  0
 17  9  1  0
  5 25  1  0
  5 26  1  0
  6 27  1  0
  7 28  1  0
  9 29  1  1
 15 30  1  6
 16 31  1  0
 17 32  1  1
 18 33  1  0
 18 34  1  0
 18 35  1  0
 19 36  1  0
 19 37  1  0
 21 38  1  0
 21 39  1  0
 22 40  1  0
 23 41  1  0
 23 42  1  0
 23 43  1  0
 24 44  1  0
 24 45  1  0
 24 46  1  0
M  CHG  2  13   1  14  -1
A    1
-0.577389
A    2
0.632302
A    3
-0.618751
A    4
0.528917
A    5
-0.651895
A    6
-0.380755
A    7
0.110132
A    8
-0.203052
A    9
0.280827
A   10
-0.365120
A   11
0.304570
A   12
-0.346302
A   13
0.418392
A   14
-0.247345
A   15
0.129237
A   16
-0.521893
A   17
-0.068317
A   18
-0.361784
A   19
-0.044167
A   20
-0.275493
A   21
0.033540
A   22
0.097245
A   23
-0.368131
A   24
-0.365508
A   25
0.353799
A   26
0.346923
A   27
0.149610
A   28
0.116315
A   29
0.058246
A   30
0.071408
A   31
0.367693
A   32
0.097787
A   33
0.103687
A   34
0.117664
A   35
0.137266
A   36
0.079869
A   37
0.084299
A   38
0.047580
A   39
0.052877
A   40
0.054700
A   41
0.104094
A   42
0.099553
A   43
0.103796
A   44
0.104869
A   45
0.104970
A   46
0.103737
M  END
$$$$
