
     RDKit          3D

 35 34  0  0  0  0  0  0  0  0999 V2000
    1.3348    2.6037   -4.7598 C   0  0  0  0  0  0  0  0  0  0  0  0
    0.6523    2.5364   -3.3950 C   0  0  0  0  0  0  0  0  0  0  0  0
    1.6542    2.4902   -2.2348 C   0  0  0  0  0  0  0  0  0  0  0  0
    2.5901    1.2784   -2.2567 C   0  0  0  0  0  0  0  0  0  0  0  0
    1.8454   -0.2725   -1.9439 S   0  0  0  0  0  0  0  0  0  0  0  0
    2.7739   -1.4776   -1.6337 N   0  0  0  0  0  0  0  0  0  0  0  0
    0.9846   -0.5224   -3.2950 O   0  0  0  0  0  0  0  0  0  0  0  0
    0.5274   -0.1488   -0.7885 C   0  0  0  0  0  0  0  0  0  0  0  0
   -0.0490   -1.5177   -0.4092 C   0  0  0  0  0  0  0  0  0  0  0  0
   -1.4846   -1.4383    0.2217 C   0  0  0  0  0  0  0  0  0  0  0  0
   -2.1122   -2.7798    0.2805 N   0  0  0  0  0  0  0  0  0  0  0  0
   -1.6005   -0.6719    1.9280 P   0  0  0  0  0  0  0  0  0  0  0  0
   -2.8865   -0.4254    2.5845 O   0  0  0  0  0  0  0  0  0  0  0  0
   -0.5957   -1.5966    2.7547 O   0  0  0  0  0  0  0  0  0  0  0  0
   -0.7668    0.6644    1.6245 O   0  0  0  0  0  0  0  0  0  0  0  0
    2.0885    3.3988   -4.8017 H   0  0  0  0  0  0  0  0  0  0  0  0
    1.8312    1.6614   -5.0179 H   0  0  0  0  0  0  0  0  0  0  0  0
    0.6054    2.8054   -5.5560 H   0  0  0  0  0  0  0  0  0  0  0  0
   -0.0411    1.6740   -3.3658 H   0  0  0  0  0  0  0  0  0  0  0  0
    0.0003    3.4276   -3.2654 H   0  0  0  0  0  0  0  0  0  0  0  0
    2.2823    3.4130   -2.2725 H   0  0  0  0  0  0  0  0  0  0  0  0
    1.1218    2.5768   -1.2648 H   0  0  0  0  0  0  0  0  0  0  0  0
    3.4266    1.4628   -1.5326 H   0  0  0  0  0  0  0  0  0  0  0  0
    3.1246    1.2684   -3.2436 H   0  0  0  0  0  0  0  0  0  0  0  0
    3.6845   -1.6729   -2.0087 H   0  0  0  0  0  0  0  0  0  0  0  0
    1.2124   -1.2549   -3.9128 H   0  0  0  0  0  0  0  0  0  0  0  0
   -0.2902    0.5050   -1.1899 H   0  0  0  0  0  0  0  0  0  0  0  0
    0.8721    0.3900    0.1386 H   0  0  0  0  0  0  0  0  0  0  0  0
    0.6564   -2.0681    0.2565 H   0  0  0  0  0  0  0  0  0  0  0  0
   -0.1488   -2.1661   -1.3105 H   0  0  0  0  0  0  0  0  0  0  0  0
   -2.1367   -0.7811   -0.4580 H   0  0  0  0  0  0  0  0  0  0  0  0
   -2.2302   -3.1450   -0.6635 H   0  0  0  0  0  0  0  0  0  0  0  0
   -1.5602   -3.4604    0.7975 H   0  0  0  0  0  0  0  0  0  0  0  0
   -0.7305   -1.4489    3.7621 H   0  0  0  0  0  0  0  0  0  0  0  0
   -0.8957    1.3486    2.3711 H   0  0  0  0  0  0  0  0  0  0  0  0
  1  2  1  0
  2  3  1  0
  3  4  1  0
  4  5  1  0
  5  6  2  3
  5  7  1  0
  5  8  1  0
  8  9  1  0
  9 10  1  0
 10 11  1  0
 10 12  1  0
 12 13  2  0
 12 14  1  0
 12 15  1  0
  1 16  1  0
  1 17  1  0
  1 18  1  0
  2 19  1  0
  2 20  1  0
  3 21  1  0
  3 22  1  0
  4 23  1  0
  4 24  1  0
  6 25  1  0
  7 26  1  0
  8 27  1  0
  8 28  1  0
  9 29  1  0
  9 30  1  0
 10 31  1  0
 11 32  1  0
 11 33  1  0
 14 34  1  0
 15 35  1  0
M  CHG  1   5   1
A    1
-0.333118
A    2
-0.090181
A    3
-0.115435
A    4
-0.319700
A    5
1.148644
A    6
-0.833764
A    7
-0.578339
A    8
-0.293010
A    9
-0.138103
A   10
-0.058150
A   11
-0.677474
A   12
1.323380
A   13
-0.817979
A   14
-0.670634
A   15
-0.674109
A   16
0.105916
A   17
0.096835
A   18
0.109414
A   19
0.066614
A   20
0.080070
A   21
0.115523
A   22
0.089598
A   23
0.184657
A   24
0.184263
A   25
0.415654
A   26
0.486236
A   27
0.169273
A   28
0.171446
A   29
0.106391
A   30
0.108343
A   31
0.113110
A   32
0.308228
A   33
0.299424
A   34
0.458613
A   35
0.458365
M  END
$$$$
