
     RDKit          3D

 50 55  0  0  0  0  0  0  0  0999 V2000
    3.3198    2.7052   -1.4464 O   0  0  0  0  0  0  0  0  0  0  0  0
    2.2389    2.2817   -1.1174 C   0  0  0  0  0  0  0  0  0  0  0  0
    1.6288    1.0567   -1.7419 C   0  0  0  0  0  0  0  0  0  0  0  0
    0.7623    0.2503   -0.7513 C   0  0  0  0  0  0  0  0  0  0  0  0
   -0.2152   -0.6934   -1.4871 C   0  0  0  0  0  0  0  0  0  0  0  0
   -1.6426   -0.6501   -0.9107 C   0  0  0  0  0  0  0  0  0  0  0  0
   -1.6503   -0.6177    0.5694 N   0  0  0  0  0  0  0  0  0  0  0  0
   -3.0432   -0.6036    1.0877 C   0  0  0  0  0  0  0  0  0  0  0  0
   -3.7034   -1.9388    0.7997 C   0  0  0  0  0  0  0  0  0  0  0  0
   -5.1805   -2.0874    1.0886 C   0  0  0  0  0  0  0  0  0  0  0  0
   -4.6925   -2.0674   -0.3395 C   0  0  0  0  0  0  0  0  0  0  0  0
   -0.8631    0.4977    1.1579 C   0  0  0  0  0  0  0  0  0  0  0  0
    0.1321   -0.1183    2.1662 C   0  0  0  0  0  0  0  0  0  0  0  0
    1.2971   -0.7912    1.5118 C   0  0  0  0  0  0  0  0  0  0  0  0
    2.0847   -1.6220    2.3162 C   0  0  0  0  0  0  0  0  0  0  0  0
    3.1829   -2.2970    1.7968 C   0  0  0  0  0  0  0  0  0  0  0  0
    3.4706   -2.1244    0.4434 C   0  0  0  0  0  0  0  0  0  0  0  0
    4.5121   -2.7537   -0.1643 O   0  0  0  0  0  0  0  0  0  0  0  0
    2.7058   -1.3013   -0.3822 C   0  0  0  0  0  0  0  0  0  0  0  0
    1.6173   -0.6143    0.1576 C   0  0  0  0  0  0  0  0  0  0  0  0
   -0.0451    1.2592    0.1052 C   0  0  0  0  0  0  0  0  0  0  0  0
   -0.8277    2.3183   -0.7092 C   0  0  0  0  0  0  0  0  0  0  0  0
    0.1127    3.5414   -0.7513 C   0  0  0  0  0  0  0  0  0  0  0  0
    1.3885    3.0096   -0.0747 C   0  0  0  0  0  0  0  0  0  0  0  0
    0.9276    2.0247    0.8373 O   0  0  0  0  0  0  0  0  0  0  0  0
    1.0110    1.3890   -2.6088 H   0  0  0  0  0  0  0  0  0  0  0  0
    2.4150    0.4215   -2.2027 H   0  0  0  0  0  0  0  0  0  0  0  0
    0.1638   -1.7357   -1.4386 H   0  0  0  0  0  0  0  0  0  0  0  0
   -0.2606   -0.4526   -2.5662 H   0  0  0  0  0  0  0  0  0  0  0  0
   -2.2146    0.1922   -1.3563 H   0  0  0  0  0  0  0  0  0  0  0  0
   -2.1800   -1.5791   -1.2192 H   0  0  0  0  0  0  0  0  0  0  0  0
   -2.9992   -0.4613    2.1942 H   0  0  0  0  0  0  0  0  0  0  0  0
   -3.6447    0.2384    0.6814 H   0  0  0  0  0  0  0  0  0  0  0  0
   -3.0364   -2.7848    1.0064 H   0  0  0  0  0  0  0  0  0  0  0  0
   -5.7435   -1.2426    1.4753 H   0  0  0  0  0  0  0  0  0  0  0  0
   -5.5554   -3.0104    1.5210 H   0  0  0  0  0  0  0  0  0  0  0  0
   -4.7128   -2.9774   -0.9322 H   0  0  0  0  0  0  0  0  0  0  0  0
   -4.9075   -1.2100   -0.9703 H   0  0  0  0  0  0  0  0  0  0  0  0
   -1.5198    1.2241    1.7028 H   0  0  0  0  0  0  0  0  0  0  0  0
    0.5029    0.6848    2.8421 H   0  0  0  0  0  0  0  0  0  0  0  0
   -0.4140   -0.8375    2.8136 H   0  0  0  0  0  0  0  0  0  0  0  0
    1.8320   -1.7441    3.3713 H   0  0  0  0  0  0  0  0  0  0  0  0
    3.7922   -2.9416    2.4219 H   0  0  0  0  0  0  0  0  0  0  0  0
    5.0317   -3.3176    0.4661 H   0  0  0  0  0  0  0  0  0  0  0  0
    2.9707   -1.2165   -1.4351 H   0  0  0  0  0  0  0  0  0  0  0  0
   -1.0775    1.9632   -1.7220 H   0  0  0  0  0  0  0  0  0  0  0  0
   -1.7872    2.5647   -0.2275 H   0  0  0  0  0  0  0  0  0  0  0  0
   -0.3069    4.3930   -0.1890 H   0  0  0  0  0  0  0  0  0  0  0  0
    0.2865    3.9073   -1.7748 H   0  0  0  0  0  0  0  0  0  0  0  0
    1.9543    3.7410    0.5290 H   0  0  0  0  0  0  0  0  0  0  0  0
  1  2  2  0
  2  3  1  0
  3  4  1  0
  4  5  1  0
  5  6  1  0
  6  7  1  0
  7  8  1  0
  8  9  1  0
  9 10  1  0
 10 11  1  0
  7 12  1  0
 12 13  1  0
 13 14  1  0
 14 15  2  0
 15 16  1  0
 16 17  2  0
 17 18  1  0
 17 19  1  0
 19 20  2  0
 12 21  1  0
 21 22  1  0
 22 23  1  0
 23 24  1  0
 24 25  1  0
 24  2  1  0
 20  4  1  0
 25 21  1  0
 21  4  1  0
 11  9  1  0
 20 14  1  0
  3 26  1  0
  3 27  1  0
  5 28  1  0
  5 29  1  0
  6 30  1  0
  6 31  1  0
  8 32  1  0
  8 33  1  0
  9 34  1  0
 10 35  1  0
 10 36  1  0
 11 37  1  0
 11 38  1  0
 12 39  1  0
 13 40  1  0
 13 41  1  0
 15 42  1  0
 16 43  1  0
 18 44  1  0
 19 45  1  0
 22 46  1  0
 22 47  1  0
 23 48  1  0
 23 49  1  0
 24 50  1  0
A    1
-0.480325
A    2
0.450330
A    3
-0.302314
A    4
0.061434
A    5
-0.188350
A    6
-0.023467
A    7
-0.213395
A    8
-0.044841
A    9
-0.018084
A   10
-0.246044
A   11
-0.244544
A   12
0.046518
A   13
-0.213314
A   14
0.037139
A   15
-0.117415
A   16
-0.268464
A   17
0.324596
A   18
-0.511816
A   19
-0.274588
A   20
0.037383
A   21
0.199102
A   22
-0.212317
A   23
-0.180550
A   24
0.080168
A   25
-0.307478
A   26
0.123876
A   27
0.121903
A   28
0.087428
A   29
0.084792
A   30
0.032818
A   31
0.073524
A   32
0.069554
A   33
0.050098
A   34
0.082919
A   35
0.110542
A   36
0.109178
A   37
0.107857
A   38
0.106550
A   39
0.050494
A   40
0.084130
A   41
0.088984
A   42
0.108111
A   43
0.123304
A   44
0.397320
A   45
0.126186
A   46
0.091094
A   47
0.097742
A   48
0.098177
A   49
0.094418
A   50
0.089634
M  END
$$$$
