
     RDKit          3D

 51 53  0  0  0  0  0  0  0  0999 V2000
   -4.2249    3.2912    2.2462 O   0  0  0  0  0  0  0  0  0  0  0  0
   -4.3751    2.3254    1.5322 C   0  0  0  0  0  0  0  0  0  0  0  0
   -3.2423    1.4848    1.1018 C   0  0  0  0  0  0  0  0  0  0  0  0
   -1.9896    1.7785    1.4970 C   0  0  0  0  0  0  0  0  0  0  0  0
   -0.8096    0.9931    1.2100 C   0  0  0  0  0  0  0  0  0  0  0  0
   -0.5394    0.1784    0.1735 C   0  0  0  0  0  0  0  0  0  0  0  0
    0.7171   -0.5692    0.1947 C   0  0  0  0  0  0  0  0  0  0  0  0
    1.9827   -0.1254    0.2466 C   0  0  0  0  0  0  0  0  0  0  0  0
    2.4307    1.2912    0.3237 C   0  0  1  0  0  0  0  0  0  0  0  0
    3.3107    1.4962    1.5710 C   0  0  0  0  0  0  0  0  0  0  0  0
    3.2774    2.8976    1.8011 O   0  0  0  0  0  0  0  0  0  0  0  0
    3.1825    1.6964   -0.9482 C   0  0  0  0  0  0  0  0  0  0  0  0
    2.9731   -1.2586    0.1788 C   0  0  0  0  0  0  0  0  0  0  0  0
    2.1183   -2.5285   -0.0498 C   0  0  0  0  0  0  0  0  0  0  0  0
    0.6309   -2.0792    0.0805 C   0  0  2  0  0  0  0  0  0  0  0  0
   -0.1878   -2.4253   -1.1738 C   0  0  0  0  0  0  0  0  0  0  0  0
   -1.5122   -1.6532   -1.2061 C   0  0  0  0  0  0  0  0  0  0  0  0
   -1.3381   -0.1202   -1.0740 C   0  0  1  0  0  0  0  0  0  0  0  0
   -2.7424    0.5401   -1.0968 C   0  0  1  0  0  0  0  0  0  0  0  0
   -3.5498   -0.0646   -2.0933 O   0  0  0  0  0  0  0  0  0  0  0  0
   -3.5429    0.3413    0.2004 C   0  0  0  0  0  0  0  0  0  0  0  0
   -0.5509    0.4429   -2.2738 C   0  0  0  0  0  0  0  0  0  0  0  0
   -0.0029   -2.6738    1.3403 C   0  0  0  0  0  0  0  0  0  0  0  0
   -5.3801    2.0496    1.1850 H   0  0  0  0  0  0  0  0  0  0  0  0
   -1.8172    2.6592    2.1367 H   0  0  0  0  0  0  0  0  0  0  0  0
   -0.0423    1.0861    1.9960 H   0  0  0  0  0  0  0  0  0  0  0  0
    1.5398    1.9728    0.4298 H   0  0  0  0  0  0  0  0  0  0  0  0
    2.8932    0.9801    2.4535 H   0  0  0  0  0  0  0  0  0  0  0  0
    4.3532    1.1797    1.4053 H   0  0  0  0  0  0  0  0  0  0  0  0
    3.8175    3.1270    2.5793 H   0  0  0  0  0  0  0  0  0  0  0  0
    2.5454    1.5912   -1.8332 H   0  0  0  0  0  0  0  0  0  0  0  0
    4.0804    1.0925   -1.1084 H   0  0  0  0  0  0  0  0  0  0  0  0
    3.4965    2.7476   -0.8836 H   0  0  0  0  0  0  0  0  0  0  0  0
    3.7010   -1.1111   -0.6370 H   0  0  0  0  0  0  0  0  0  0  0  0
    3.5593   -1.3318    1.1109 H   0  0  0  0  0  0  0  0  0  0  0  0
    2.3652   -3.3127    0.6799 H   0  0  0  0  0  0  0  0  0  0  0  0
    2.3175   -2.9599   -1.0416 H   0  0  0  0  0  0  0  0  0  0  0  0
   -0.3860   -3.5121   -1.2108 H   0  0  0  0  0  0  0  0  0  0  0  0
    0.4011   -2.1929   -2.0816 H   0  0  0  0  0  0  0  0  0  0  0  0
   -2.1752   -2.0142   -0.3955 H   0  0  0  0  0  0  0  0  0  0  0  0
   -2.0521   -1.8861   -2.1446 H   0  0  0  0  0  0  0  0  0  0  0  0
   -2.6588    1.6240   -1.3450 H   0  0  0  0  0  0  0  0  0  0  0  0
   -3.1469    0.0292   -2.9764 H   0  0  0  0  0  0  0  0  0  0  0  0
   -4.6219    0.2565   -0.0504 H   0  0  0  0  0  0  0  0  0  0  0  0
   -3.2869   -0.6250    0.6818 H   0  0  0  0  0  0  0  0  0  0  0  0
   -1.0385    0.2112   -3.2245 H   0  0  0  0  0  0  0  0  0  0  0  0
    0.4612    0.0182   -2.3186 H   0  0  0  0  0  0  0  0  0  0  0  0
   -0.4342    1.5306   -2.1995 H   0  0  0  0  0  0  0  0  0  0  0  0
    0.5799   -2.4199    2.2334 H   0  0  0  0  0  0  0  0  0  0  0  0
   -1.0163   -2.2847    1.4977 H   0  0  0  0  0  0  0  0  0  0  0  0
   -0.0703   -3.7643    1.2793 H   0  0  0  0  0  0  0  0  0  0  0  0
  1  2  2  0
  2  3  1  0
  3  4  2  0
  4  5  1  0
  5  6  2  0
  6  7  1  0
  7  8  2  0
  8  9  1  0
  9 10  1  0
 10 11  1  0
  9 12  1  0
  8 13  1  0
 13 14  1  0
 14 15  1  0
 15 16  1  0
 16 17  1  0
 17 18  1  0
 18 19  1  0
 19 20  1  0
 19 21  1  0
 18 22  1  6
 15 23  1  1
 21  3  1  0
 18  6  1  0
 15  7  1  0
  2 24  1  0
  4 25  1  0
  5 26  1  0
  9 27  1  1
 10 28  1  0
 10 29  1  0
 11 30  1  0
 12 31  1  0
 12 32  1  0
 12 33  1  0
 13 34  1  0
 13 35  1  0
 14 36  1  0
 14 37  1  0
 16 38  1  0
 16 39  1  0
 17 40  1  0
 17 41  1  0
 19 42  1  6
 20 43  1  0
 21 44  1  0
 21 45  1  0
 22 46  1  0
 22 47  1  0
 22 48  1  0
 23 49  1  0
 23 50  1  0
 23 51  1  0
A    1
-0.448920
A    2
0.298909
A    3
-0.022578
A    4
-0.062592
A    5
-0.159835
A    6
0.073677
A    7
-0.080777
A    8
0.021651
A    9
0.015188
A   10
0.095131
A   11
-0.551407
A   12
-0.352897
A   13
-0.158791
A   14
-0.172364
A   15
0.166688
A   16
-0.179767
A   17
-0.170774
A   18
0.074206
A   19
0.224209
A   20
-0.557916
A   21
-0.221975
A   22
-0.381292
A   23
-0.381392
A   24
0.041039
A   25
0.104964
A   26
0.102435
A   27
0.057307
A   28
0.036036
A   29
0.044708
A   30
0.370067
A   31
0.106182
A   32
0.100010
A   33
0.106672
A   34
0.077536
A   35
0.075195
A   36
0.077739
A   37
0.074111
A   38
0.081691
A   39
0.074673
A   40
0.075394
A   41
0.080735
A   42
0.025378
A   43
0.363707
A   44
0.100389
A   45
0.096404
A   46
0.111994
A   47
0.111770
A   48
0.117526
A   49
0.110744
A   50
0.100549
A   51
0.108664
M  END
$$$$
