
     RDKit          3D

 34 35  0  0  0  0  0  0  0  0999 V2000
    1.3749   -2.6953    0.6264 O   0  0  0  0  0  0  0  0  0  0  0  0
    1.8100   -1.5625    0.5870 C   0  0  0  0  0  0  0  0  0  0  0  0
    1.2474   -0.5992   -0.2779 N   0  0  0  0  0  0  0  0  0  0  0  0
    1.7992    0.6664   -0.4121 C   0  0  0  0  0  0  0  0  0  0  0  0
    2.8364    1.0685    0.3645 C   0  0  0  0  0  0  0  0  0  0  0  0
    3.4264    0.1695    1.3507 C   0  0  0  0  0  0  0  0  0  0  0  0
    4.3251    0.4026    2.1221 O   0  0  0  0  0  0  0  0  0  0  0  0
    2.8676   -1.1402    1.3880 N   0  0  0  0  0  0  0  0  0  0  0  0
    3.4483    2.4151    0.2587 C   0  0  0  0  0  0  0  0  0  0  0  0
    0.1076   -1.0272   -1.1340 C   0  0  2  0  0  0  0  0  0  0  0  0
   -0.4306    0.1328   -1.7323 O   0  0  0  0  0  0  0  0  0  0  0  0
   -1.6801    0.4817   -1.1415 C   0  0  1  0  0  0  0  0  0  0  0  0
   -2.2798   -0.8749   -0.6670 C   0  0  2  0  0  0  0  0  0  0  0  0
   -3.1887   -0.7250    0.4578 N   0  0  0  0  0  0  0  0  0  0  0  0
   -3.7765   -1.8115    1.0803 C   0  0  0  0  0  0  0  0  0  0  0  0
   -4.5414   -1.6141    2.0009 O   0  0  0  0  0  0  0  0  0  0  0  0
   -1.0145   -1.7042   -0.3302 C   0  0  0  0  0  0  0  0  0  0  0  0
   -1.4079    1.5081   -0.0282 C   0  0  0  0  0  0  0  0  0  0  0  0
   -2.6766    2.0790    0.2466 O   0  0  0  0  0  0  0  0  0  0  0  0
    1.3497    1.3162   -1.1779 H   0  0  0  0  0  0  0  0  0  0  0  0
    3.2707   -1.8249    2.0346 H   0  0  0  0  0  0  0  0  0  0  0  0
    3.5309    2.8953    1.2496 H   0  0  0  0  0  0  0  0  0  0  0  0
    4.4772    2.3541   -0.1358 H   0  0  0  0  0  0  0  0  0  0  0  0
    2.8871    3.0966   -0.3918 H   0  0  0  0  0  0  0  0  0  0  0  0
    0.5057   -1.6297   -1.9880 H   0  0  0  0  0  0  0  0  0  0  0  0
   -2.2577    0.9390   -1.9735 H   0  0  0  0  0  0  0  0  0  0  0  0
   -2.8266   -1.3522   -1.5238 H   0  0  0  0  0  0  0  0  0  0  0  0
   -3.4111    0.2226    0.7521 H   0  0  0  0  0  0  0  0  0  0  0  0
   -3.5129   -2.8090    0.7096 H   0  0  0  0  0  0  0  0  0  0  0  0
   -1.1156   -2.7689   -0.5983 H   0  0  0  0  0  0  0  0  0  0  0  0
   -0.8186   -1.7046    0.7608 H   0  0  0  0  0  0  0  0  0  0  0  0
   -1.0021    1.0422    0.8877 H   0  0  0  0  0  0  0  0  0  0  0  0
   -0.7203    2.2972   -0.3835 H   0  0  0  0  0  0  0  0  0  0  0  0
   -2.6036    2.7561    0.9505 H   0  0  0  0  0  0  0  0  0  0  0  0
  1  2  2  0
  2  3  1  0
  3  4  1  0
  4  5  2  0
  5  6  1  0
  6  7  2  0
  6  8  1  0
  5  9  1  0
  3 10  1  0
 10 11  1  0
 11 12  1  0
 12 13  1  0
 13 14  1  0
 14 15  1  0
 15 16  2  0
 13 17  1  0
 12 18  1  0
 18 19  1  0
  8  2  1  0
 17 10  1  0
  4 20  1  0
  8 21  1  0
  9 22  1  0
  9 23  1  0
  9 24  1  0
 10 25  1  6
 12 26  1  6
 13 27  1  6
 14 28  1  0
 15 29  1  0
 17 30  1  0
 17 31  1  0
 18 32  1  0
 18 33  1  0
 19 34  1  0
A    1
-0.577968
A    2
0.638945
A    3
-0.219573
A    4
0.021663
A    5
-0.089530
A    6
0.538483
A    7
-0.544262
A    8
-0.490804
A    9
-0.342049
A   10
0.320140
A   11
-0.324542
A   12
0.133005
A   13
0.124377
A   14
-0.417337
A   15
0.438532
A   16
-0.540928
A   17
-0.299776
A   18
0.045534
A   19
-0.522194
A   20
0.119318
A   21
0.355479
A   22
0.120667
A   23
0.120288
A   24
0.121158
A   25
0.052971
A   26
0.071910
A   27
0.056947
A   28
0.289972
A   29
0.052366
A   30
0.119290
A   31
0.118421
A   32
0.058459
A   33
0.065339
A   34
0.385697
M  END
$$$$
