
     RDKit          3D

 50 52  0  0  0  0  0  0  0  0999 V2000
    1.4685   -5.7604   -1.3265 C   0  0  0  0  0  0  0  0  0  0  0  0
    1.5010   -4.3927   -1.8566 C   0  0  0  0  0  0  0  0  0  0  0  0
    1.1182   -3.2296   -1.3058 C   0  0  0  0  0  0  0  0  0  0  0  0
    1.3592   -2.1043   -2.2820 C   0  0  0  0  0  0  0  0  0  0  0  0
    0.0656   -1.4368   -2.7654 C   0  0  0  0  0  0  0  0  0  0  0  0
    0.3390   -0.4460   -3.9245 C   0  0  0  0  0  0  0  0  0  0  0  0
   -0.7656    0.6146   -3.7956 C   0  0  0  0  0  0  0  0  0  0  0  0
   -1.5326    0.2517   -2.5010 C   0  0  0  0  0  0  0  0  0  0  0  0
   -0.6976   -0.7027   -1.7144 N   0  0  0  0  0  0  0  0  0  0  0  0
    0.1446    0.0032   -0.7182 C   0  0  0  0  0  0  0  0  0  0  0  0
   -0.7440    0.4569    0.4563 C   0  0  0  0  0  0  0  0  0  0  0  0
    0.1235    1.0816    1.5527 C   0  0  0  0  0  0  0  0  0  0  0  0
   -0.7439    1.5126    2.7399 C   0  0  0  0  0  0  0  0  0  0  0  0
    0.1177    2.1312    3.8365 C   0  0  0  0  0  0  0  0  0  0  0  0
   -0.6954    2.5977    5.0597 C   0  0  0  0  0  0  0  0  0  0  0  0
   -0.3938    1.5667    6.1597 C   0  0  0  0  0  0  0  0  0  0  0  0
    0.0284    2.1955    7.4785 C   0  0  0  0  0  0  0  0  0  0  0  0
    0.7365    0.7415    5.5865 C   0  0  0  0  0  0  0  0  0  0  0  0
    1.3797   -0.1404    6.0929 O   0  0  0  0  0  0  0  0  0  0  0  0
    1.0164    1.1022    4.3021 O   0  0  0  0  0  0  0  0  0  0  0  0
    1.9310   -2.7463   -3.4495 O   0  0  0  0  0  0  0  0  0  0  0  0
    2.0204   -4.1090   -3.2237 C   0  0  0  0  0  0  0  0  0  0  0  0
    2.4701   -4.8117   -4.0854 O   0  0  0  0  0  0  0  0  0  0  0  0
    2.4674   -6.2316   -1.3441 H   0  0  0  0  0  0  0  0  0  0  0  0
    0.8095   -6.4153   -1.9239 H   0  0  0  0  0  0  0  0  0  0  0  0
    1.1089   -5.8053   -0.2865 H   0  0  0  0  0  0  0  0  0  0  0  0
    0.6851   -3.0428   -0.3372 H   0  0  0  0  0  0  0  0  0  0  0  0
    2.1395   -1.3843   -1.9500 H   0  0  0  0  0  0  0  0  0  0  0  0
   -0.6329   -2.2426   -3.1266 H   0  0  0  0  0  0  0  0  0  0  0  0
    1.3415    0.0053   -3.8434 H   0  0  0  0  0  0  0  0  0  0  0  0
    0.3149   -0.9597   -4.8990 H   0  0  0  0  0  0  0  0  0  0  0  0
   -1.4381    0.6149   -4.6676 H   0  0  0  0  0  0  0  0  0  0  0  0
   -0.3406    1.6289   -3.7344 H   0  0  0  0  0  0  0  0  0  0  0  0
   -1.7980    1.1482   -1.9140 H   0  0  0  0  0  0  0  0  0  0  0  0
   -2.4845   -0.2693   -2.7378 H   0  0  0  0  0  0  0  0  0  0  0  0
    0.6879    0.8689   -1.1522 H   0  0  0  0  0  0  0  0  0  0  0  0
    0.9130   -0.6960   -0.3224 H   0  0  0  0  0  0  0  0  0  0  0  0
   -1.5073    1.1789    0.1134 H   0  0  0  0  0  0  0  0  0  0  0  0
   -1.3096   -0.4096    0.8508 H   0  0  0  0  0  0  0  0  0  0  0  0
    0.6817    1.9489    1.1506 H   0  0  0  0  0  0  0  0  0  0  0  0
    0.8934    0.3594    1.8933 H   0  0  0  0  0  0  0  0  0  0  0  0
   -1.3024    0.6419    3.1380 H   0  0  0  0  0  0  0  0  0  0  0  0
   -1.5123    2.2401    2.4112 H   0  0  0  0  0  0  0  0  0  0  0  0
    0.8012    2.9160    3.4481 H   0  0  0  0  0  0  0  0  0  0  0  0
   -1.7752    2.6602    4.8428 H   0  0  0  0  0  0  0  0  0  0  0  0
   -0.3997    3.6182    5.3637 H   0  0  0  0  0  0  0  0  0  0  0  0
   -1.2784    0.8996    6.3255 H   0  0  0  0  0  0  0  0  0  0  0  0
    0.8980    2.8568    7.3648 H   0  0  0  0  0  0  0  0  0  0  0  0
   -0.7828    2.7965    7.9104 H   0  0  0  0  0  0  0  0  0  0  0  0
    0.2986    1.4299    8.2208 H   0  0  0  0  0  0  0  0  0  0  0  0
  1  2  1  0
  2  3  2  0
  3  4  1  0
  4  5  1  0
  5  6  1  0
  6  7  1  0
  7  8  1  0
  8  9  1  0
  9 10  1  0
 10 11  1  0
 11 12  1  0
 12 13  1  0
 13 14  1  0
 14 15  1  0
 15 16  1  0
 16 17  1  0
 16 18  1  0
 18 19  2  0
 18 20  1  0
  4 21  1  0
 21 22  1  0
 22 23  2  0
 22  2  1  0
  9  5  1  0
 20 14  1  0
  1 24  1  0
  1 25  1  0
  1 26  1  0
  3 27  1  0
  4 28  1  0
  5 29  1  0
  6 30  1  0
  6 31  1  0
  7 32  1  0
  7 33  1  0
  8 34  1  0
  8 35  1  0
 10 36  1  0
 10 37  1  0
 11 38  1  0
 11 39  1  0
 12 40  1  0
 12 41  1  0
 13 42  1  0
 13 43  1  0
 14 44  1  0
 15 45  1  0
 15 46  1  0
 16 47  1  0
 17 48  1  0
 17 49  1  0
 17 50  1  0
A    1
-0.345796
A    2
0.018745
A    3
-0.180923
A    4
0.138992
A    5
0.066973
A    6
-0.175529
A    7
-0.143935
A    8
-0.026345
A    9
-0.253315
A   10
-0.034593
A   11
-0.150757
A   12
-0.121655
A   13
-0.199040
A   14
0.216292
A   15
-0.228295
A   16
-0.051330
A   17
-0.341089
A   18
0.589978
A   19
-0.546033
A   20
-0.315356
A   21
-0.311560
A   22
0.548945
A   23
-0.524069
A   24
0.129214
A   25
0.128067
A   26
0.125855
A   27
0.146898
A   28
0.077874
A   29
0.054021
A   30
0.079064
A   31
0.085274
A   32
0.075207
A   33
0.069687
A   34
0.072910
A   35
0.057582
A   36
0.052824
A   37
0.064123
A   38
0.072286
A   39
0.075694
A   40
0.069982
A   41
0.075762
A   42
0.089666
A   43
0.087018
A   44
0.048435
A   45
0.099221
A   46
0.094851
A   47
0.097818
A   48
0.112893
A   49
0.114819
A   50
0.112647
M  END
$$$$
