
     RDKit          3D

 38 40  0  0  0  0  0  0  0  0999 V2000
   -5.2448   -0.5955   -0.1758 O   0  0  0  0  0  0  0  0  0  0  0  0
   -4.2934   -0.2886   -0.8355 C   0  0  0  0  0  0  0  0  0  0  0  0
   -4.3145    0.4064   -2.0768 N   0  0  0  0  0  0  0  0  0  0  0  0
   -3.0583    0.5512   -2.4887 C   0  0  0  0  0  0  0  0  0  0  0  0
   -2.6146    1.3750   -3.9711 S   0  0  0  0  0  0  0  0  0  0  0  0
   -2.1180   -0.0849   -1.6621 N   0  0  0  0  0  0  0  0  0  0  0  0
   -0.6974    0.2627   -1.6599 C   0  0  0  0  0  0  0  0  0  0  0  0
   -0.4353    1.6731   -1.2040 C   0  0  0  0  0  0  0  0  0  0  0  0
   -0.9500    2.1318    0.0091 C   0  0  0  0  0  0  0  0  0  0  0  0
   -0.6946    3.4352    0.4257 C   0  0  0  0  0  0  0  0  0  0  0  0
    0.0764    4.2827   -0.3683 C   0  0  0  0  0  0  0  0  0  0  0  0
    0.6003    3.8207   -1.5741 C   0  0  0  0  0  0  0  0  0  0  0  0
    0.3475    2.5161   -1.9929 C   0  0  0  0  0  0  0  0  0  0  0  0
   -2.8235   -0.5761   -0.5214 C   0  0  0  0  0  0  0  0  0  0  0  0
   -2.4070   -1.2094    0.5780 C   0  0  0  0  0  0  0  0  0  0  0  0
   -1.0218   -1.5143    0.9292 C   0  0  0  0  0  0  0  0  0  0  0  0
   -0.3847   -0.7560    1.9162 C   0  0  0  0  0  0  0  0  0  0  0  0
    0.9448   -1.0133    2.2323 C   0  0  0  0  0  0  0  0  0  0  0  0
    1.6272   -2.0404    1.5732 C   0  0  0  0  0  0  0  0  0  0  0  0
    3.0321   -2.2758    1.9288 C   0  0  0  0  0  0  0  0  0  0  0  0
    3.7130   -1.6419    2.7024 O   0  0  0  0  0  0  0  0  0  0  0  0
    3.5552   -3.3412    1.2784 O   0  0  0  0  0  0  0  0  0  0  0  0
    0.9825   -2.8193    0.6093 C   0  0  0  0  0  0  0  0  0  0  0  0
   -0.3455   -2.5562    0.2878 C   0  0  0  0  0  0  0  0  0  0  0  0
   -3.8568    1.6725   -4.4140 H   0  0  0  0  0  0  0  0  0  0  0  0
   -0.1386   -0.4566   -1.0074 H   0  0  0  0  0  0  0  0  0  0  0  0
   -0.2863    0.0736   -2.6854 H   0  0  0  0  0  0  0  0  0  0  0  0
   -1.5555    1.4748    0.6334 H   0  0  0  0  0  0  0  0  0  0  0  0
   -1.0982    3.7916    1.3740 H   0  0  0  0  0  0  0  0  0  0  0  0
    0.2690    5.3057   -0.0464 H   0  0  0  0  0  0  0  0  0  0  0  0
    1.2074    4.4809   -2.1928 H   0  0  0  0  0  0  0  0  0  0  0  0
    0.7649    2.1615   -2.9353 H   0  0  0  0  0  0  0  0  0  0  0  0
   -3.1538   -1.5414    1.3225 H   0  0  0  0  0  0  0  0  0  0  0  0
   -0.9253    0.0382    2.4342 H   0  0  0  0  0  0  0  0  0  0  0  0
    1.4570   -0.4143    2.9925 H   0  0  0  0  0  0  0  0  0  0  0  0
    4.5081   -3.5244    1.5111 H   0  0  0  0  0  0  0  0  0  0  0  0
    1.5177   -3.6293    0.1048 H   0  0  0  0  0  0  0  0  0  0  0  0
   -0.8568   -3.1587   -0.4650 H   0  0  0  0  0  0  0  0  0  0  0  0
  1  2  2  0
  2  3  1  0
  3  4  2  0
  4  5  1  0
  4  6  1  0
  6  7  1  0
  7  8  1  0
  8  9  2  0
  9 10  1  0
 10 11  2  0
 11 12  1  0
 12 13  2  0
  6 14  1  0
 14 15  2  0
 15 16  1  0
 16 17  2  0
 17 18  1  0
 18 19  2  0
 19 20  1  0
 20 21  2  0
 20 22  1  0
 19 23  1  0
 23 24  2  0
 14  2  1  0
 24 16  1  0
 13  8  1  0
  5 25  1  0
  7 26  1  0
  7 27  1  0
  9 28  1  0
 10 29  1  0
 11 30  1  0
 12 31  1  0
 13 32  1  0
 15 33  1  0
 17 34  1  0
 18 35  1  0
 22 36  1  0
 23 37  1  0
 24 38  1  0
A    1
-0.489963
A    2
0.526420
A    3
-0.571066
A    4
0.350172
A    5
-0.113862
A    6
-0.126149
A    7
-0.058776
A    8
0.066019
A    9
-0.139218
A   10
-0.082452
A   11
-0.104349
A   12
-0.089654
A   13
-0.150087
A   14
0.023765
A   15
-0.161765
A   16
0.131053
A   17
-0.140923
A   18
-0.068866
A   19
-0.078598
A   20
0.645512
A   21
-0.564170
A   22
-0.546235
A   23
-0.076304
A   24
-0.141243
A   25
0.202577
A   26
0.089698
A   27
0.094811
A   28
0.091776
A   29
0.105578
A   30
0.107152
A   31
0.107075
A   32
0.105368
A   33
0.142211
A   34
0.123516
A   35
0.121405
A   36
0.427149
A   37
0.121111
A   38
0.121312
M  END
$$$$
