
     RDKit          3D

 31 33  0  0  0  0  0  0  0  0999 V2000
    1.2008   -0.8996    4.6231 O   0  0  0  0  0  0  0  0  0  0  0  0
    0.4234   -0.2023    4.0375 C   0  0  0  0  0  0  0  0  0  0  0  0
   -0.1849    0.9235    4.6614 N   0  0  0  0  0  0  0  0  0  0  0  0
   -0.7826    1.8502    3.9729 C   0  0  0  0  0  0  0  0  0  0  0  0
   -0.8045    1.9064    2.5514 N   0  0  0  0  0  0  0  0  0  0  0  0
   -0.4130    0.8453    1.9291 C   0  0  0  0  0  0  0  0  0  0  0  0
    0.0505    0.6355    0.5480 C   0  0  0  0  0  0  0  0  0  0  0  0
   -0.2039    1.5752   -0.5793 C   0  0  2  0  0  0  0  0  0  0  0  0
   -1.3934    1.1614   -1.2359 O   0  0  0  0  0  0  0  0  0  0  0  0
   -1.0916    0.4446   -2.4275 C   0  0  2  0  0  0  0  0  0  0  0  0
   -1.3540   -1.0438   -2.1601 C   0  0  0  0  0  0  0  0  0  0  0  0
   -1.4693   -1.6130   -3.4547 O   0  0  0  0  0  0  0  0  0  0  0  0
    0.3720    0.7440   -2.8073 C   0  0  1  0  0  0  0  0  0  0  0  0
    0.4307    1.5439   -3.9659 O   0  0  0  0  0  0  0  0  0  0  0  0
    0.9323    1.5987   -1.6352 C   0  0  1  0  0  0  0  0  0  0  0  0
    1.2105    2.9228   -1.9799 O   0  0  0  0  0  0  0  0  0  0  0  0
    0.7186   -0.5026    0.4594 N   0  0  0  0  0  0  0  0  0  0  0  0
    0.8534   -1.1051    1.6644 N   0  0  0  0  0  0  0  0  0  0  0  0
   -0.0923   -0.4879    2.6273 C   0  0  0  0  0  0  0  0  0  0  0  0
   -1.2606    2.7160    4.4753 H   0  0  0  0  0  0  0  0  0  0  0  0
   -0.4433    2.6036   -0.2042 H   0  0  0  0  0  0  0  0  0  0  0  0
   -1.8119    0.8461   -3.1781 H   0  0  0  0  0  0  0  0  0  0  0  0
   -2.2984   -1.1902   -1.6040 H   0  0  0  0  0  0  0  0  0  0  0  0
   -0.5290   -1.5396   -1.6196 H   0  0  0  0  0  0  0  0  0  0  0  0
   -1.7046   -2.5639   -3.3868 H   0  0  0  0  0  0  0  0  0  0  0  0
    0.9734   -0.1724   -2.9852 H   0  0  0  0  0  0  0  0  0  0  0  0
    0.0130    1.0708   -4.7232 H   0  0  0  0  0  0  0  0  0  0  0  0
    1.9040    1.2207   -1.2495 H   0  0  0  0  0  0  0  0  0  0  0  0
    0.5799    3.2552   -2.6669 H   0  0  0  0  0  0  0  0  0  0  0  0
    0.9278   -2.1269    1.6340 H   0  0  0  0  0  0  0  0  0  0  0  0
   -1.0275   -1.1169    2.7401 H   0  0  0  0  0  0  0  0  0  0  0  0
  1  2  2  0
  2  3  1  0
  3  4  2  0
  4  5  1  0
  5  6  2  0
  6  7  1  0
  7  8  1  0
  8  9  1  0
  9 10  1  0
 10 11  1  0
 11 12  1  0
 10 13  1  0
 13 14  1  0
 13 15  1  0
 15 16  1  0
  7 17  2  0
 17 18  1  0
 18 19  1  0
 19  2  1  0
 19  6  1  0
 15  8  1  0
  4 20  1  0
  8 21  1  1
 10 22  1  6
 11 23  1  0
 11 24  1  0
 12 25  1  0
 13 26  1  6
 14 27  1  0
 15 28  1  1
 16 29  1  0
 18 30  1  0
 19 31  1  0
A    1
-0.465078
A    2
0.572822
A    3
-0.491794
A    4
0.334340
A    5
-0.421041
A    6
0.238644
A    7
0.050358
A    8
0.084343
A    9
-0.318174
A   10
0.104393
A   11
0.050629
A   12
-0.549185
A   13
0.129672
A   14
-0.554428
A   15
0.156565
A   16
-0.536519
A   17
-0.152478
A   18
-0.175988
A   19
-0.094695
A   20
0.096261
A   21
0.080594
A   22
0.064814
A   23
0.057106
A   24
0.040859
A   25
0.376871
A   26
0.050334
A   27
0.385892
A   28
0.061851
A   29
0.377534
A   30
0.292817
A   31
0.152679
M  END
$$$$
