
     RDKit          3D

 29 30  0  0  0  0  0  0  0  0999 V2000
    3.8225   -0.9725    0.2944 S   0  0  0  0  0  0  0  0  0  0  0  0
    3.9900   -0.1297    1.4441 O   0  0  0  0  0  0  0  0  0  0  0  0
    4.4385   -2.2752    0.2475 O   0  0  0  0  0  0  0  0  0  0  0  0
    2.1108   -1.3556    0.1267 N   0  0  0  0  0  0  0  0  0  0  0  0
    1.1243   -0.4087    0.0081 C   0  0  0  0  0  0  0  0  0  0  0  0
    1.3383    0.8825   -0.3989 N   0  0  0  0  0  0  0  0  0  0  0  0
    0.0983    1.4828   -0.4496 N   0  0  0  0  0  0  0  0  0  0  0  0
   -0.9002    0.6277   -0.0878 C   0  0  0  0  0  0  0  0  0  0  0  0
   -0.2810   -0.6213    0.2115 C   0  0  0  0  0  0  0  0  0  0  0  0
   -1.0339   -1.7534    0.6195 C   0  0  0  0  0  0  0  0  0  0  0  0
   -0.6446   -2.8677    0.9000 O   0  0  0  0  0  0  0  0  0  0  0  0
   -2.4473   -1.5210    0.7016 N   0  0  0  0  0  0  0  0  0  0  0  0
   -3.0371   -0.3029    0.4103 C   0  0  0  0  0  0  0  0  0  0  0  0
   -2.3074    0.7902    0.0131 C   0  0  0  0  0  0  0  0  0  0  0  0
   -4.5234   -0.2527    0.5562 C   0  0  0  0  0  0  0  0  0  0  0  0
    0.0131    2.8890   -0.7918 C   0  0  0  0  0  0  0  0  0  0  0  0
    4.2029   -0.0741   -1.1718 C   0  0  0  0  0  0  0  0  0  0  0  0
    1.7721   -2.2774    0.4405 H   0  0  0  0  0  0  0  0  0  0  0  0
   -3.0254   -2.3058    0.9932 H   0  0  0  0  0  0  0  0  0  0  0  0
   -2.7701    1.7390   -0.2146 H   0  0  0  0  0  0  0  0  0  0  0  0
   -4.9274    0.7450    0.3264 H   0  0  0  0  0  0  0  0  0  0  0  0
   -4.8417   -0.4929    1.5833 H   0  0  0  0  0  0  0  0  0  0  0  0
   -5.0242   -0.9607   -0.1231 H   0  0  0  0  0  0  0  0  0  0  0  0
   -0.5557    3.0238   -1.7310 H   0  0  0  0  0  0  0  0  0  0  0  0
    1.0268    3.3164   -0.9368 H   0  0  0  0  0  0  0  0  0  0  0  0
   -0.4840    3.4557    0.0184 H   0  0  0  0  0  0  0  0  0  0  0  0
    3.6696    0.8932   -1.2133 H   0  0  0  0  0  0  0  0  0  0  0  0
    3.9288   -0.6203   -2.0850 H   0  0  0  0  0  0  0  0  0  0  0  0
    5.2740    0.1551   -1.2421 H   0  0  0  0  0  0  0  0  0  0  0  0
  1  2  2  0
  1  3  2  0
  1  4  1  0
  4  5  1  0
  5  6  2  0
  6  7  1  0
  7  8  1  0
  8  9  2  0
  9 10  1  0
 10 11  2  0
 10 12  1  0
 12 13  1  0
 13 14  2  0
 13 15  1  0
  7 16  1  0
  1 17  1  0
  9  5  1  0
 14  8  1  0
  4 18  1  0
 12 19  1  0
 14 20  1  0
 15 21  1  0
 15 22  1  0
 15 23  1  0
 16 24  1  0
 16 25  1  0
 16 26  1  0
 17 27  1  0
 17 28  1  0
 17 29  1  0
A    1
1.295512
A    2
-0.587163
A    3
-0.599729
A    4
-0.554020
A    5
0.353575
A    6
-0.424048
A    7
0.158521
A    8
0.159482
A    9
-0.320600
A   10
0.555364
A   11
-0.586228
A   12
-0.406092
A   13
0.328289
A   14
-0.360437
A   15
-0.412981
A   16
-0.233269
A   17
-0.530459
A   18
0.347060
A   19
0.330143
A   20
0.142116
A   21
0.140100
A   22
0.137010
A   23
0.136457
A   24
0.114474
A   25
0.135083
A   26
0.117065
A   27
0.175567
A   28
0.190665
A   29
0.198542
M  END
$$$$
