
     RDKit          3D

 41 44  0  0  0  0  0  0  0  0999 V2000
   -2.1363    2.1134    3.9506 C   0  0  0  0  0  0  0  0  0  0  0  0
   -0.7344    1.6242    3.7134 C   0  0  0  0  0  0  0  0  0  0  0  0
    0.0723    2.2233    4.6763 O   0  0  0  0  0  0  0  0  0  0  0  0
   -0.5103    0.0743    3.5994 C   0  0  0  0  0  0  0  0  0  0  0  0
    0.1927    0.2872    2.2917 N   0  0  0  0  0  0  0  0  0  0  0  0
    0.0669   -0.5578    1.2084 C   0  0  0  0  0  0  0  0  0  0  0  0
   -0.1107   -1.9615    1.3605 C   0  0  0  0  0  0  0  0  0  0  0  0
   -0.2643   -2.4625    2.5775 F   0  0  0  0  0  0  0  0  0  0  0  0
   -0.1025   -2.8382    0.2967 C   0  0  0  0  0  0  0  0  0  0  0  0
    0.0787   -2.3558   -1.0047 C   0  0  0  0  0  0  0  0  0  0  0  0
    0.0920   -3.3344   -2.1134 C   0  0  0  0  0  0  0  0  0  0  0  0
   -0.1768   -4.5006   -1.9115 O   0  0  0  0  0  0  0  0  0  0  0  0
    0.4251   -2.7740   -3.4073 C   0  0  0  0  0  0  0  0  0  0  0  0
    0.6126   -3.6115   -4.5766 C   0  0  0  0  0  0  0  0  0  0  0  0
    0.6359   -3.2252   -5.7310 O   0  0  0  0  0  0  0  0  0  0  0  0
    0.8003   -4.9166   -4.3003 O   0  0  0  0  0  0  0  0  0  0  0  0
    0.5427   -1.4114   -3.5780 C   0  0  0  0  0  0  0  0  0  0  0  0
    0.4297   -0.5249   -2.5511 N   0  0  0  0  0  0  0  0  0  0  0  0
    0.4537    0.8950   -2.8754 C   0  0  0  0  0  0  0  0  0  0  0  0
   -0.3989    1.3874   -4.0341 C   0  0  0  0  0  0  0  0  0  0  0  0
   -0.7887    1.7318   -2.6237 C   0  0  0  0  0  0  0  0  0  0  0  0
    0.2631   -0.9787   -1.2296 C   0  0  0  0  0  0  0  0  0  0  0  0
    0.2924   -0.1194   -0.1124 C   0  0  0  0  0  0  0  0  0  0  0  0
    0.5823    1.1589   -0.2937 F   0  0  0  0  0  0  0  0  0  0  0  0
   -0.1536    1.7459    2.2592 C   0  0  0  0  0  0  0  0  0  0  0  0
   -2.1951    3.2098    3.8758 H   0  0  0  0  0  0  0  0  0  0  0  0
   -2.8495    1.6937    3.2290 H   0  0  0  0  0  0  0  0  0  0  0  0
   -2.4875    1.8467    4.9592 H   0  0  0  0  0  0  0  0  0  0  0  0
    1.0175    1.9599    4.5832 H   0  0  0  0  0  0  0  0  0  0  0  0
    0.1621   -0.3613    4.3553 H   0  0  0  0  0  0  0  0  0  0  0  0
   -1.4439   -0.5039    3.5625 H   0  0  0  0  0  0  0  0  0  0  0  0
   -0.2351   -3.9211    0.4506 H   0  0  0  0  0  0  0  0  0  0  0  0
    0.9147   -5.4735   -5.1222 H   0  0  0  0  0  0  0  0  0  0  0  0
    0.7412   -0.9842   -4.5845 H   0  0  0  0  0  0  0  0  0  0  0  0
    1.4577    1.3286   -2.7227 H   0  0  0  0  0  0  0  0  0  0  0  0
    0.0045    2.1531   -4.6963 H   0  0  0  0  0  0  0  0  0  0  0  0
   -1.0144    0.6956   -4.6090 H   0  0  0  0  0  0  0  0  0  0  0  0
   -0.6802    2.7511   -2.2548 H   0  0  0  0  0  0  0  0  0  0  0  0
   -1.6741    1.2763   -2.1804 H   0  0  0  0  0  0  0  0  0  0  0  0
   -0.8981    2.0518    1.5116 H   0  0  0  0  0  0  0  0  0  0  0  0
    0.7444    2.3759    2.1621 H   0  0  0  0  0  0  0  0  0  0  0  0
  1  2  1  0
  2  3  1  0
  2  4  1  0
  4  5  1  0
  5  6  1  0
  6  7  2  0
  7  8  1  0
  7  9  1  0
  9 10  2  0
 10 11  1  0
 11 12  2  0
 11 13  1  0
 13 14  1  0
 14 15  2  0
 14 16  1  0
 13 17  2  0
 17 18  1  0
 18 19  1  0
 19 20  1  0
 20 21  1  0
 18 22  1  0
 22 23  2  0
 23 24  1  0
  5 25  1  0
 25  2  1  0
 23  6  1  0
 22 10  1  0
 21 19  1  0
  1 26  1  0
  1 27  1  0
  1 28  1  0
  3 29  1  0
  4 30  1  0
  4 31  1  0
  9 32  1  0
 16 33  1  0
 17 34  1  0
 19 35  1  0
 20 36  1  0
 20 37  1  0
 21 38  1  0
 21 39  1  0
 25 40  1  0
 25 41  1  0
A    1
-0.417089
A    2
0.389142
A    3
-0.586544
A    4
-0.155511
A    5
-0.114519
A    6
-0.017340
A    7
0.213122
A    8
-0.132801
A    9
-0.225703
A   10
-0.091338
A   11
0.409103
A   12
-0.508613
A   13
-0.287052
A   14
0.672257
A   15
-0.606812
A   16
-0.528444
A   17
0.070188
A   18
0.004763
A   19
0.066032
A   20
-0.249604
A   21
-0.242307
A   22
0.030293
A   23
0.122308
A   24
-0.112625
A   25
-0.152730
A   26
0.127036
A   27
0.123745
A   28
0.128735
A   29
0.391714
A   30
0.098929
A   31
0.099983
A   32
0.149297
A   33
0.420647
A   34
0.118591
A   35
0.086278
A   36
0.129180
A   37
0.130901
A   38
0.125625
A   39
0.128624
A   40
0.096172
A   41
0.096367
M  END
$$$$
