
     RDKit          3D

 32 33  0  0  0  0  0  0  0  0999 V2000
   -3.3500   -1.0404    1.7054 F   0  0  0  0  0  0  0  0  0  0  0  0
   -3.6497   -0.2709    0.6709 C   0  0  0  0  0  0  0  0  0  0  0  0
   -2.7101   -0.1268   -0.3490 C   0  0  0  0  0  0  0  0  0  0  0  0
   -3.0319    0.6773   -1.4434 C   0  0  0  0  0  0  0  0  0  0  0  0
   -4.2637    1.3262   -1.4905 C   0  0  0  0  0  0  0  0  0  0  0  0
   -5.1863    1.1692   -0.4548 C   0  0  0  0  0  0  0  0  0  0  0  0
   -4.8899    0.3628    0.6423 C   0  0  0  0  0  0  0  0  0  0  0  0
   -1.4112   -0.8516   -0.3445 C   0  0  0  0  0  0  0  0  0  0  0  0
   -1.0993   -1.6822   -1.1549 O   0  0  0  0  0  0  0  0  0  0  0  0
   -0.5229   -0.3551    0.6335 N   0  0  0  0  0  0  0  0  0  0  0  0
    0.6428   -1.1126    0.8462 N   0  0  0  0  0  0  0  0  0  0  0  0
    1.8093   -0.4915    0.3762 C   0  0  0  0  0  0  0  0  0  0  0  0
    2.9683   -0.9078    0.9742 N   0  0  0  0  0  0  0  0  0  0  0  0
    4.1362   -0.5150    0.4590 C   0  0  0  0  0  0  0  0  0  0  0  0
    4.2093    0.3383   -0.6595 C   0  0  0  0  0  0  0  0  0  0  0  0
    5.4904    0.7458   -1.1719 N   0  0  0  0  0  0  0  0  0  0  0  0
    6.4921    0.3229   -0.6144 O   0  0  0  0  0  0  0  0  0  0  0  0
    5.5180    1.4955   -2.1352 O   0  0  0  0  0  0  0  0  0  0  0  0
    3.0232    0.7897   -1.2619 C   0  0  0  0  0  0  0  0  0  0  0  0
    1.8111    0.3822   -0.7426 C   0  0  0  0  0  0  0  0  0  0  0  0
    0.6767   -1.7761    2.1636 C   0  0  0  0  0  0  0  0  0  0  0  0
   -2.3170    0.7884   -2.2630 H   0  0  0  0  0  0  0  0  0  0  0  0
   -4.5110    1.9561   -2.3445 H   0  0  0  0  0  0  0  0  0  0  0  0
   -6.1498    1.6790   -0.5046 H   0  0  0  0  0  0  0  0  0  0  0  0
   -5.6091    0.2308    1.4496 H   0  0  0  0  0  0  0  0  0  0  0  0
   -0.8656    0.1617    1.4412 H   0  0  0  0  0  0  0  0  0  0  0  0
    5.0446   -0.8863    0.9656 H   0  0  0  0  0  0  0  0  0  0  0  0
    3.0715    1.4552   -2.1326 H   0  0  0  0  0  0  0  0  0  0  0  0
    0.8710    0.7001   -1.1877 H   0  0  0  0  0  0  0  0  0  0  0  0
    0.8096   -1.0819    3.0077 H   0  0  0  0  0  0  0  0  0  0  0  0
    1.5334   -2.4853    2.1719 H   0  0  0  0  0  0  0  0  0  0  0  0
   -0.2447   -2.3673    2.3038 H   0  0  0  0  0  0  0  0  0  0  0  0
  1  2  1  0
  2  3  2  0
  3  4  1  0
  4  5  2  0
  5  6  1  0
  6  7  2  0
  3  8  1  0
  8  9  2  0
  8 10  1  0
 10 11  1  0
 11 12  1  0
 12 13  2  0
 13 14  1  0
 14 15  2  0
 15 16  1  0
 16 17  1  0
 16 18  2  0
 15 19  1  0
 19 20  2  0
 11 21  1  0
  7  2  1  0
 20 12  1  0
  4 22  1  0
  5 23  1  0
  6 24  1  0
  7 25  1  0
 10 26  1  0
 14 27  1  0
 19 28  1  0
 20 29  1  0
 21 30  1  0
 21 31  1  0
 21 32  1  0
M  CHG  2  16   1  17  -1
A    1
-0.155404
A    2
0.280273
A    3
-0.174523
A    4
-0.074884
A    5
-0.114395
A    6
-0.049667
A    7
-0.228539
A    8
0.540877
A    9
-0.502914
A   10
-0.370547
A   11
0.027158
A   12
0.322343
A   13
-0.369880
A   14
0.093199
A   15
-0.031535
A   16
0.586198
A   17
-0.406239
A   18
-0.404056
A   19
-0.044674
A   20
-0.209860
A   21
-0.254146
A   22
0.119245
A   23
0.114440
A   24
0.114578
A   25
0.147194
A   26
0.294993
A   27
0.111878
A   28
0.138431
A   29
0.133756
A   30
0.115311
A   31
0.125098
A   32
0.126293
M  END
$$$$
