
     RDKit          3D

 45 44  0  0  0  0  0  0  0  0999 V2000
  -10.9634    2.0607    0.5080 O   0  0  0  0  0  0  0  0  0  0  0  0
   -9.6445    1.7555    0.9623 C   0  0  0  0  0  0  0  0  0  0  0  0
   -9.0000    1.0483   -0.1099 C   0  0  0  0  0  0  0  0  0  0  0  0
   -8.4727    0.4555   -1.0282 C   0  0  0  0  0  0  0  0  0  0  0  0
   -7.8580   -0.2232   -2.0926 C   0  0  0  0  0  0  0  0  0  0  0  0
   -6.9562   -1.2051   -1.9377 C   0  0  0  0  0  0  0  0  0  0  0  0
   -6.4840   -1.7052   -0.6119 C   0  0  0  0  0  0  0  0  0  0  0  0
   -5.0882   -1.1542   -0.2866 C   0  0  0  0  0  0  0  0  0  0  0  0
   -4.0035   -1.7953   -1.1739 C   0  0  0  0  0  0  0  0  0  0  0  0
   -2.7064   -1.3119   -0.8131 C   0  0  0  0  0  0  0  0  0  0  0  0
   -1.6045   -0.8983   -0.5040 C   0  0  0  0  0  0  0  0  0  0  0  0
   -0.3773   -0.4401   -0.1620 C   0  0  0  0  0  0  0  0  0  0  0  0
    0.7297   -0.0281    0.1453 C   0  0  0  0  0  0  0  0  0  0  0  0
    1.9584    0.4279    0.4847 C   0  0  0  0  0  0  0  0  0  0  0  0
    3.0630    0.8377    0.7892 C   0  0  0  0  0  0  0  0  0  0  0  0
    4.3649    1.3156    1.1399 C   0  0  0  0  0  0  0  0  0  0  0  0
    5.4455    0.6143    0.2934 C   0  0  0  0  0  0  0  0  0  0  0  0
    6.8361    1.1492    0.6483 C   0  0  0  0  0  0  0  0  0  0  0  0
    7.9136    0.4273   -0.1756 C   0  0  0  0  0  0  0  0  0  0  0  0
    9.2654    0.9570    0.1692 C   0  0  0  0  0  0  0  0  0  0  0  0
   10.2736    0.2071    0.6405 C   0  0  0  0  0  0  0  0  0  0  0  0
   10.1817   -1.1753    0.8783 C   0  0  0  0  0  0  0  0  0  0  0  0
   10.1117   -2.3670    1.0896 C   0  0  0  0  0  0  0  0  0  0  0  0
  -11.4276    2.5943    1.1829 H   0  0  0  0  0  0  0  0  0  0  0  0
   -9.7255    1.1334    1.8819 H   0  0  0  0  0  0  0  0  0  0  0  0
   -9.1190    2.7066    1.2045 H   0  0  0  0  0  0  0  0  0  0  0  0
   -8.1705    0.1073   -3.0921 H   0  0  0  0  0  0  0  0  0  0  0  0
   -6.5082   -1.6944   -2.8026 H   0  0  0  0  0  0  0  0  0  0  0  0
   -7.1888   -1.4137    0.1967 H   0  0  0  0  0  0  0  0  0  0  0  0
   -6.4748   -2.8141   -0.5986 H   0  0  0  0  0  0  0  0  0  0  0  0
   -5.0770   -0.0534   -0.4129 H   0  0  0  0  0  0  0  0  0  0  0  0
   -4.8538   -1.3367    0.7800 H   0  0  0  0  0  0  0  0  0  0  0  0
   -4.2177   -1.5786   -2.2484 H   0  0  0  0  0  0  0  0  0  0  0  0
   -4.0480   -2.9072   -1.0848 H   0  0  0  0  0  0  0  0  0  0  0  0
    4.5672    1.1484    2.2254 H   0  0  0  0  0  0  0  0  0  0  0  0
    4.4294    2.4211    0.9977 H   0  0  0  0  0  0  0  0  0  0  0  0
    5.3996   -0.4796    0.4591 H   0  0  0  0  0  0  0  0  0  0  0  0
    5.2373    0.7659   -0.7832 H   0  0  0  0  0  0  0  0  0  0  0  0
    7.0379    1.0076    1.7278 H   0  0  0  0  0  0  0  0  0  0  0  0
    6.8856    2.2394    0.4688 H   0  0  0  0  0  0  0  0  0  0  0  0
    7.8483   -0.6679   -0.0040 H   0  0  0  0  0  0  0  0  0  0  0  0
    7.7237    0.5646   -1.2614 H   0  0  0  0  0  0  0  0  0  0  0  0
    9.3924    2.0287    0.0090 H   0  0  0  0  0  0  0  0  0  0  0  0
   11.2492    0.6531    0.8716 H   0  0  0  0  0  0  0  0  0  0  0  0
   10.0554   -3.3770    1.2694 H   0  0  0  0  0  0  0  0  0  0  0  0
  1  2  1  0
  2  3  1  0
  3  4  3  0
  4  5  1  0
  5  6  2  0
  6  7  1  0
  7  8  1  0
  8  9  1  0
  9 10  1  0
 10 11  3  0
 11 12  1  0
 12 13  3  0
 13 14  1  0
 14 15  3  0
 15 16  1  0
 16 17  1  0
 17 18  1  0
 18 19  1  0
 19 20  1  0
 20 21  2  0
 21 22  1  0
 22 23  3  0
  1 24  1  0
  2 25  1  0
  2 26  1  0
  5 27  1  0
  6 28  1  0
  7 29  1  0
  7 30  1  0
  8 31  1  0
  8 32  1  0
  9 33  1  0
  9 34  1  0
 16 35  1  0
 16 36  1  0
 17 37  1  0
 17 38  1  0
 18 39  1  0
 18 40  1  0
 19 41  1  0
 19 42  1  0
 20 43  1  0
 21 44  1  0
 23 45  1  0
A    1
-0.548532
A    2
0.161098
A    3
-0.131536
A    4
-0.083559
A    5
-0.095551
A    6
-0.067941
A    7
-0.129057
A    8
-0.112900
A    9
-0.102665
A   10
-0.005429
A   11
-0.126716
A   12
-0.029998
A   13
-0.029727
A   14
-0.128924
A   15
-0.004917
A   16
-0.107288
A   17
-0.116539
A   18
-0.123514
A   19
-0.127937
A   20
-0.050607
A   21
-0.127936
A   22
0.048606
A   23
-0.391156
A   24
0.372572
A   25
0.066887
A   26
0.068024
A   27
0.119000
A   28
0.095316
A   29
0.083774
A   30
0.086257
A   31
0.081205
A   32
0.080967
A   33
0.106836
A   34
0.110172
A   35
0.110994
A   36
0.110007
A   37
0.081070
A   38
0.079582
A   39
0.074757
A   40
0.072958
A   41
0.080440
A   42
0.088887
A   43
0.096512
A   44
0.119094
A   45
0.247415
M  END
$$$$
