
     RDKit          3D

 47 49  0  0  0  0  0  0  0  0999 V2000
   -5.1295   -2.2797    1.3653 O   0  0  0  0  0  0  0  0  0  0  0  0
   -4.4674   -1.3622    0.9709 C   0  0  0  0  0  0  0  0  0  0  0  0
   -5.0059   -0.1324    0.5065 N   0  0  0  0  0  0  0  0  0  0  0  0
   -4.0293    0.6942   -0.0027 N   0  0  0  0  0  0  0  0  0  0  0  0
   -2.8368    0.1880    0.2371 C   0  0  0  0  0  0  0  0  0  0  0  0
   -1.6142    0.8740   -0.1445 C   0  0  0  0  0  0  0  0  0  0  0  0
   -0.3608    0.3831    0.2410 C   0  0  0  0  0  0  0  0  0  0  0  0
    0.7963    1.0585   -0.1331 C   0  0  0  0  0  0  0  0  0  0  0  0
    1.9393    0.5393    0.3934 O   0  0  0  0  0  0  0  0  0  0  0  0
    3.1093    0.6211   -0.4323 C   0  0  0  0  0  0  0  0  0  0  0  0
    3.9730   -0.5237    0.0032 C   0  0  0  0  0  0  0  0  0  0  0  0
    4.8507   -1.1097   -0.9102 C   0  0  0  0  0  0  0  0  0  0  0  0
    5.6679   -2.1630   -0.5062 C   0  0  0  0  0  0  0  0  0  0  0  0
    5.6038   -2.6360    0.8037 C   0  0  0  0  0  0  0  0  0  0  0  0
    4.7239   -2.0514    1.7127 C   0  0  0  0  0  0  0  0  0  0  0  0
    3.9107   -0.9917    1.3162 C   0  0  0  0  0  0  0  0  0  0  0  0
    0.7140    2.2342   -0.9100 C   0  0  0  0  0  0  0  0  0  0  0  0
    1.9156    2.7961   -1.2127 O   0  0  0  0  0  0  0  0  0  0  0  0
    1.8933    3.9793   -2.0001 C   0  0  0  0  0  0  0  0  0  0  0  0
   -0.5305    2.7177   -1.2995 C   0  0  0  0  0  0  0  0  0  0  0  0
   -1.6859    2.0402   -0.9141 C   0  0  0  0  0  0  0  0  0  0  0  0
   -2.9286   -1.1829    0.9252 C   0  0  0  0  0  0  0  0  0  0  0  0
   -2.4143   -1.1582    2.3557 C   0  0  0  0  0  0  0  0  0  0  0  0
   -2.3228   -2.2927    0.0840 C   0  0  0  0  0  0  0  0  0  0  0  0
   -6.3574    0.0382   -0.0164 C   0  0  0  0  0  0  0  0  0  0  0  0
   -0.2653   -0.5231    0.8402 H   0  0  0  0  0  0  0  0  0  0  0  0
    2.8406    0.5680   -1.5023 H   0  0  0  0  0  0  0  0  0  0  0  0
    3.5897    1.5988   -0.2198 H   0  0  0  0  0  0  0  0  0  0  0  0
    4.8984   -0.7488   -1.9350 H   0  0  0  0  0  0  0  0  0  0  0  0
    6.3555   -2.6190   -1.2154 H   0  0  0  0  0  0  0  0  0  0  0  0
    6.2401   -3.4611    1.1156 H   0  0  0  0  0  0  0  0  0  0  0  0
    4.6725   -2.4211    2.7349 H   0  0  0  0  0  0  0  0  0  0  0  0
    3.2252   -0.5309    2.0284 H   0  0  0  0  0  0  0  0  0  0  0  0
    1.4578    3.7873   -2.9853 H   0  0  0  0  0  0  0  0  0  0  0  0
    2.9625    4.2155   -2.0900 H   0  0  0  0  0  0  0  0  0  0  0  0
    1.3681    4.7857   -1.4787 H   0  0  0  0  0  0  0  0  0  0  0  0
   -0.6195    3.6215   -1.8953 H   0  0  0  0  0  0  0  0  0  0  0  0
   -2.6622    2.4287   -1.2163 H   0  0  0  0  0  0  0  0  0  0  0  0
   -1.3190   -1.1006    2.3989 H   0  0  0  0  0  0  0  0  0  0  0  0
   -2.8055   -0.2965    2.9146 H   0  0  0  0  0  0  0  0  0  0  0  0
   -2.7162   -2.0660    2.8991 H   0  0  0  0  0  0  0  0  0  0  0  0
   -1.2269   -2.2296    0.0494 H   0  0  0  0  0  0  0  0  0  0  0  0
   -2.6781   -2.2612   -0.9544 H   0  0  0  0  0  0  0  0  0  0  0  0
   -2.5826   -3.2818    0.4898 H   0  0  0  0  0  0  0  0  0  0  0  0
   -6.4310   -0.2249   -1.0859 H   0  0  0  0  0  0  0  0  0  0  0  0
   -7.0426   -0.6114    0.5618 H   0  0  0  0  0  0  0  0  0  0  0  0
   -6.6760    1.0906    0.1059 H   0  0  0  0  0  0  0  0  0  0  0  0
  1  2  2  0
  2  3  1  0
  3  4  1  0
  4  5  2  0
  5  6  1  0
  6  7  2  0
  7  8  1  0
  8  9  1  0
  9 10  1  0
 10 11  1  0
 11 12  2  0
 12 13  1  0
 13 14  2  0
 14 15  1  0
 15 16  2  0
  8 17  2  0
 17 18  1  0
 18 19  1  0
 17 20  1  0
 20 21  2  0
  5 22  1  0
 22 23  1  0
 22 24  1  0
  3 25  1  0
 22  2  1  0
 21  6  1  0
 16 11  1  0
  7 26  1  0
 10 27  1  0
 10 28  1  0
 12 29  1  0
 13 30  1  0
 14 31  1  0
 15 32  1  0
 16 33  1  0
 19 34  1  0
 19 35  1  0
 19 36  1  0
 20 37  1  0
 21 38  1  0
 23 39  1  0
 23 40  1  0
 23 41  1  0
 24 42  1  0
 24 43  1  0
 24 44  1  0
 25 45  1  0
 25 46  1  0
 25 47  1  0
A    1
-0.511903
A    2
0.442092
A    3
0.007717
A    4
-0.306423
A    5
0.125837
A    6
0.032558
A    7
-0.230243
A    8
0.153188
A    9
-0.225405
A   10
0.026053
A   11
0.067785
A   12
-0.155934
A   13
-0.096511
A   14
-0.110707
A   15
-0.096577
A   16
-0.144881
A   17
0.150164
A   18
-0.185884
A   19
-0.134478
A   20
-0.217454
A   21
-0.118074
A   22
0.068250
A   23
-0.363441
A   24
-0.361879
A   25
-0.232635
A   26
0.119805
A   27
0.074834
A   28
0.070213
A   29
0.107678
A   30
0.102362
A   31
0.102023
A   32
0.103282
A   33
0.110514
A   34
0.099629
A   35
0.111924
A   36
0.099834
A   37
0.125475
A   38
0.107170
A   39
0.120562
A   40
0.123105
A   41
0.123771
A   42
0.119793
A   43
0.120874
A   44
0.123826
A   45
0.110550
A   46
0.122946
A   47
0.118615
M  END
$$$$
