
     RDKit          3D

 31 33  0  0  0  0  0  0  0  0999 V2000
   -6.7824    0.6263    0.8445 Cl  0  0  0  0  0  0  0  0  0  0  0  0
   -5.4924    0.2457    2.0162 C   0  0  0  0  0  0  0  0  0  0  0  0
   -4.2904   -0.1031    1.2474 C   0  0  0  0  0  0  0  0  0  0  0  0
   -3.0928    0.5745    1.4620 N   0  0  0  0  0  0  0  0  0  0  0  0
   -2.1908    0.0547    0.6172 C   0  0  0  0  0  0  0  0  0  0  0  0
   -2.8071   -0.9772   -0.1664 N   0  0  0  0  0  0  0  0  0  0  0  0
   -4.1376   -1.0666    0.2492 C   0  0  0  0  0  0  0  0  0  0  0  0
   -2.1415   -1.7043   -1.1409 C   0  0  0  0  0  0  0  0  0  0  0  0
   -0.8221   -1.4617   -1.3984 C   0  0  0  0  0  0  0  0  0  0  0  0
   -0.1597   -0.4497   -0.6442 C   0  0  0  0  0  0  0  0  0  0  0  0
    1.1458   -0.0229   -0.7118 N   0  0  0  0  0  0  0  0  0  0  0  0
    1.3219    0.9983    0.2323 C   0  0  0  0  0  0  0  0  0  0  0  0
    2.5986    1.6734    0.4221 C   0  0  0  0  0  0  0  0  0  0  0  0
    2.8555    2.5556    1.1995 O   0  0  0  0  0  0  0  0  0  0  0  0
    3.5252    1.1593   -0.4329 O   0  0  0  0  0  0  0  0  0  0  0  0
    4.8397    1.7348   -0.3594 C   0  0  0  0  0  0  0  0  0  0  0  0
    5.6395    0.9613   -1.3938 C   0  0  0  0  0  0  0  0  0  0  0  0
    0.1195    1.2245    0.9070 C   0  0  0  0  0  0  0  0  0  0  0  0
   -0.8224    0.3173    0.3641 C   0  0  0  0  0  0  0  0  0  0  0  0
   -5.8665   -0.5836    2.6434 H   0  0  0  0  0  0  0  0  0  0  0  0
   -5.3501    1.1472    2.6476 H   0  0  0  0  0  0  0  0  0  0  0  0
   -4.8424   -1.7500   -0.1743 H   0  0  0  0  0  0  0  0  0  0  0  0
   -2.7278   -2.4602   -1.6726 H   0  0  0  0  0  0  0  0  0  0  0  0
   -0.2806   -2.0187   -2.1574 H   0  0  0  0  0  0  0  0  0  0  0  0
    1.8610   -0.3627   -1.3193 H   0  0  0  0  0  0  0  0  0  0  0  0
    4.7593    2.8121   -0.5900 H   0  0  0  0  0  0  0  0  0  0  0  0
    5.2203    1.6039    0.6694 H   0  0  0  0  0  0  0  0  0  0  0  0
    5.2102    1.0719   -2.3981 H   0  0  0  0  0  0  0  0  0  0  0  0
    6.6772    1.3138   -1.4321 H   0  0  0  0  0  0  0  0  0  0  0  0
    5.6580   -0.1125   -1.1661 H   0  0  0  0  0  0  0  0  0  0  0  0
   -0.0632    1.9446    1.6860 H   0  0  0  0  0  0  0  0  0  0  0  0
  1  2  1  0
  2  3  1  0
  3  4  1  0
  4  5  2  0
  5  6  1  0
  6  7  1  0
  6  8  1  0
  8  9  2  0
  9 10  1  0
 10 11  1  0
 11 12  1  0
 12 13  1  0
 13 14  2  0
 13 15  1  0
 15 16  1  0
 16 17  1  0
 12 18  2  0
 18 19  1  0
  3  7  2  0
 19  5  1  0
 10 19  2  0
  2 20  1  0
  2 21  1  0
  7 22  1  0
  8 23  1  0
  9 24  1  0
 11 25  1  0
 16 26  1  0
 16 27  1  0
 17 28  1  0
 17 29  1  0
 17 30  1  0
 18 31  1  0
A    1
-0.199141
A    2
-0.068009
A    3
0.171978
A    4
-0.487769
A    5
0.265617
A    6
0.033583
A    7
-0.204357
A    8
0.006791
A    9
-0.252728
A   10
0.196328
A   11
-0.287552
A   12
0.017781
A   13
0.537770
A   14
-0.527955
A   15
-0.296857
A   16
0.125576
A   17
-0.364225
A   18
-0.188202
A   19
-0.091739
A   20
0.117983
A   21
0.126270
A   22
0.143217
A   23
0.121875
A   24
0.146124
A   25
0.325235
A   26
0.067948
A   27
0.065098
A   28
0.114010
A   29
0.117958
A   30
0.114109
A   31
0.153281
M  END
$$$$
