
     RDKit          3D

 37 37  0  0  0  0  0  0  0  0999 V2000
   -4.1336   -0.1375   -0.3375 C   0  0  0  0  0  0  0  0  0  0  0  0
   -2.7546   -0.0386    0.2217 C   0  0  0  0  0  0  0  0  0  0  0  0
   -2.5964    0.6083    1.4444 C   0  0  0  0  0  0  0  0  0  0  0  0
   -1.3428    0.7395    2.0397 C   0  0  0  0  0  0  0  0  0  0  0  0
   -1.2885    1.3871    3.3826 C   0  0  0  0  0  0  0  0  0  0  0  0
   -0.2055    0.2650    1.3662 C   0  0  0  0  0  0  0  0  0  0  0  0
    1.1545    0.3802    2.0178 C   0  0  0  0  0  0  0  0  0  0  0  0
    2.0088    1.9783    1.7593 P   0  0  0  0  0  0  0  0  0  0  0  0
    1.3164    3.2595    1.9511 O   0  0  0  0  0  0  0  0  0  0  0  0
    3.2988    2.0015    2.7199 O   0  0  0  0  0  0  0  0  0  0  0  0
    2.6225    1.7632    0.2917 O   0  0  0  0  0  0  0  0  0  0  0  0
   -0.3516   -0.3841    0.1252 C   0  0  0  0  0  0  0  0  0  0  0  0
    0.8541   -0.8959   -0.5923 C   0  0  0  0  0  0  0  0  0  0  0  0
   -1.6324   -0.5794   -0.4257 C   0  0  0  0  0  0  0  0  0  0  0  0
   -1.8231   -1.3396   -1.7197 C   0  0  0  0  0  0  0  0  0  0  0  0
   -2.0625   -3.1358   -1.5040 P   0  0  0  0  0  0  0  0  0  0  0  0
   -1.1138   -3.9985   -0.7832 O   0  0  0  0  0  0  0  0  0  0  0  0
   -3.5483   -3.2030   -0.9078 O   0  0  0  0  0  0  0  0  0  0  0  0
   -2.2444   -3.5657   -3.0413 O   0  0  0  0  0  0  0  0  0  0  0  0
   -4.1701    0.0522   -1.4204 H   0  0  0  0  0  0  0  0  0  0  0  0
   -4.8320    0.5709    0.1287 H   0  0  0  0  0  0  0  0  0  0  0  0
   -4.5563   -1.1454   -0.1761 H   0  0  0  0  0  0  0  0  0  0  0  0
   -3.4721    1.0096    1.9524 H   0  0  0  0  0  0  0  0  0  0  0  0
   -0.6281    0.8594    4.0858 H   0  0  0  0  0  0  0  0  0  0  0  0
   -2.2750    1.4433    3.8641 H   0  0  0  0  0  0  0  0  0  0  0  0
   -0.9226    2.4268    3.3125 H   0  0  0  0  0  0  0  0  0  0  0  0
    1.8262   -0.4686    1.6780 H   0  0  0  0  0  0  0  0  0  0  0  0
    1.0556    0.2261    3.1427 H   0  0  0  0  0  0  0  0  0  0  0  0
    3.9296    1.2282    2.5025 H   0  0  0  0  0  0  0  0  0  0  0  0
    2.9978    2.6470   -0.0608 H   0  0  0  0  0  0  0  0  0  0  0  0
    1.7100   -0.2072   -0.5645 H   0  0  0  0  0  0  0  0  0  0  0  0
    1.1865   -1.8562   -0.1631 H   0  0  0  0  0  0  0  0  0  0  0  0
    0.6944   -1.0723   -1.6660 H   0  0  0  0  0  0  0  0  0  0  0  0
   -2.7084   -0.9267   -2.3035 H   0  0  0  0  0  0  0  0  0  0  0  0
   -0.9327   -1.1892   -2.4146 H   0  0  0  0  0  0  0  0  0  0  0  0
   -3.7514   -4.1498   -0.5777 H   0  0  0  0  0  0  0  0  0  0  0  0
   -2.2378   -4.5830   -3.1254 H   0  0  0  0  0  0  0  0  0  0  0  0
  1  2  1  0
  2  3  2  0
  3  4  1  0
  4  5  1  0
  4  6  2  0
  6  7  1  0
  7  8  1  0
  8  9  2  0
  8 10  1  0
  8 11  1  0
  6 12  1  0
 12 13  1  0
 12 14  2  0
 14 15  1  0
 15 16  1  0
 16 17  2  0
 16 18  1  0
 16 19  1  0
 14  2  1  0
  1 20  1  0
  1 21  1  0
  1 22  1  0
  3 23  1  0
  5 24  1  0
  5 25  1  0
  5 26  1  0
  7 27  1  0
  7 28  1  0
 10 29  1  0
 11 30  1  0
 13 31  1  0
 13 32  1  0
 13 33  1  0
 15 34  1  0
 15 35  1  0
 18 36  1  0
 19 37  1  0
A    1
-0.377654
A    2
0.116086
A    3
-0.246906
A    4
0.110463
A    5
-0.373285
A    6
0.010085
A    7
-0.466226
A    8
1.384762
A    9
-0.820076
A   10
-0.702605
A   11
-0.688158
A   12
0.061504
A   13
-0.377935
A   14
0.002198
A   15
-0.447532
A   16
1.394941
A   17
-0.836292
A   18
-0.685681
A   19
-0.704965
A   20
0.118899
A   21
0.121845
A   22
0.121658
A   23
0.114952
A   24
0.118769
A   25
0.123341
A   26
0.120208
A   27
0.161539
A   28
0.154005
A   29
0.455302
A   30
0.455537
A   31
0.122116
A   32
0.123515
A   33
0.121997
A   34
0.158789
A   35
0.151256
A   36
0.452329
A   37
0.451220
M  END
$$$$
