
     RDKit          3D

 38 40  0  0  0  0  0  0  0  0999 V2000
    2.2554    2.6345    1.3027 O   0  0  0  0  0  0  0  0  0  0  0  0
    2.0034    1.5708    0.8053 C   0  0  0  0  0  0  0  0  0  0  0  0
    2.9880    0.6381    0.4089 N   0  0  0  0  0  0  0  0  0  0  0  0
    4.2911    0.9735    0.6228 N   0  0  0  0  0  0  0  0  0  0  0  0
    5.2220    0.1188    0.3315 C   0  0  0  0  0  0  0  0  0  0  0  0
    6.5087    0.5872    0.5834 O   0  0  0  0  0  0  0  0  0  0  0  0
    7.4319   -0.4660    0.2174 C   0  0  0  0  0  0  0  0  0  0  0  0
    6.5889   -1.6064   -0.2791 C   0  0  0  0  0  0  0  0  0  0  0  0
    5.2958   -1.2516   -0.2076 C   0  0  0  0  0  0  0  0  0  0  0  0
    0.6352    1.0614    0.5287 C   0  0  0  0  0  0  0  0  0  0  0  0
    0.2241    0.7608   -0.7702 C   0  0  0  0  0  0  0  0  0  0  0  0
   -1.0668    0.3181   -1.0090 C   0  0  0  0  0  0  0  0  0  0  0  0
   -1.9807    0.1713    0.0609 C   0  0  0  0  0  0  0  0  0  0  0  0
   -3.2337   -0.3951   -0.1822 N   0  0  0  0  0  0  0  0  0  0  0  0
   -4.1673   -0.5393    0.9530 C   0  0  0  0  0  0  0  0  0  0  0  0
   -5.5006   -1.1041    0.4447 C   0  0  0  0  0  0  0  0  0  0  0  0
   -6.1528   -0.2195   -0.4474 O   0  0  0  0  0  0  0  0  0  0  0  0
   -5.2741    0.5816   -1.2149 C   0  0  0  0  0  0  0  0  0  0  0  0
   -3.9174   -0.0970   -1.4556 C   0  0  0  0  0  0  0  0  0  0  0  0
   -1.5539    0.4892    1.3683 C   0  0  0  0  0  0  0  0  0  0  0  0
   -0.2585    0.9345    1.5914 C   0  0  0  0  0  0  0  0  0  0  0  0
    2.7350   -0.2800    0.0624 H   0  0  0  0  0  0  0  0  0  0  0  0
    8.0952   -0.0306   -0.5500 H   0  0  0  0  0  0  0  0  0  0  0  0
    8.0031   -0.6963    1.1334 H   0  0  0  0  0  0  0  0  0  0  0  0
    7.0244   -2.5263   -0.6198 H   0  0  0  0  0  0  0  0  0  0  0  0
    4.4270   -1.8191   -0.4784 H   0  0  0  0  0  0  0  0  0  0  0  0
    0.9186    0.8808   -1.6045 H   0  0  0  0  0  0  0  0  0  0  0  0
   -1.3633    0.0613   -2.0217 H   0  0  0  0  0  0  0  0  0  0  0  0
   -4.3427    0.4305    1.4728 H   0  0  0  0  0  0  0  0  0  0  0  0
   -3.7123   -1.2423    1.6889 H   0  0  0  0  0  0  0  0  0  0  0  0
   -5.3661   -2.0683   -0.0803 H   0  0  0  0  0  0  0  0  0  0  0  0
   -6.2356   -1.2256    1.2617 H   0  0  0  0  0  0  0  0  0  0  0  0
   -5.8302    0.7392   -2.1576 H   0  0  0  0  0  0  0  0  0  0  0  0
   -5.1649    1.5463   -0.6855 H   0  0  0  0  0  0  0  0  0  0  0  0
   -3.2953    0.5413   -2.1200 H   0  0  0  0  0  0  0  0  0  0  0  0
   -4.0635   -1.0693   -1.9852 H   0  0  0  0  0  0  0  0  0  0  0  0
   -2.2294    0.4018    2.2126 H   0  0  0  0  0  0  0  0  0  0  0  0
    0.0614    1.1958    2.6040 H   0  0  0  0  0  0  0  0  0  0  0  0
  1  2  2  0
  2  3  1  0
  3  4  1  0
  4  5  2  3
  5  6  1  0
  6  7  1  0
  7  8  1  0
  8  9  2  0
  2 10  1  0
 10 11  2  0
 11 12  1  0
 12 13  2  0
 13 14  1  0
 14 15  1  0
 15 16  1  0
 16 17  1  0
 17 18  1  0
 18 19  1  0
 13 20  1  0
 20 21  2  0
  9  5  1  0
 21 10  1  0
 19 14  1  0
  3 22  1  0
  7 23  1  0
  7 24  1  0
  8 25  1  0
  9 26  1  0
 11 27  1  0
 12 28  1  0
 15 29  1  0
 15 30  1  0
 16 31  1  0
 16 32  1  0
 18 33  1  0
 18 34  1  0
 19 35  1  0
 19 36  1  0
 20 37  1  0
 21 38  1  0
A    1
-0.532983
A    2
0.513350
A    3
-0.272097
A    4
-0.293211
A    5
0.344860
A    6
-0.267525
A    7
0.047115
A    8
-0.070038
A    9
-0.228525
A   10
-0.092310
A   11
-0.102769
A   12
-0.209431
A   13
0.193018
A   14
-0.160329
A   15
-0.070755
A   16
0.047009
A   17
-0.305848
A   18
0.042074
A   19
-0.066369
A   20
-0.214732
A   21
-0.085460
A   22
0.270642
A   23
0.095343
A   24
0.094803
A   25
0.136355
A   26
0.154944
A   27
0.109113
A   28
0.115951
A   29
0.070616
A   30
0.086431
A   31
0.053704
A   32
0.077559
A   33
0.074614
A   34
0.054742
A   35
0.092375
A   36
0.069548
A   37
0.111092
A   38
0.117123
M  END
$$$$
