
     RDKit          3D

 34 35  0  0  0  0  0  0  0  0999 V2000
    0.2068    3.6537   -1.6240 Cl  0  0  0  0  0  0  0  0  0  0  0  0
    0.9204    2.1253   -1.3555 C   0  0  0  0  0  0  0  0  0  0  0  0
    0.5000    1.0527   -2.1308 C   0  0  0  0  0  0  0  0  0  0  0  0
    1.0144   -0.2109   -1.8451 C   0  0  0  0  0  0  0  0  0  0  0  0
    1.9225   -0.3689   -0.7980 C   0  0  0  0  0  0  0  0  0  0  0  0
    2.5680   -1.9706   -0.3866 S   0  0  0  0  0  0  0  0  0  0  0  0
    1.0668   -2.9810   -0.1290 C   0  0  0  0  0  0  0  0  0  0  0  0
    0.7145   -3.0180    1.3222 C   0  0  0  0  0  0  0  0  0  0  0  0
    0.1559   -2.1499    2.1293 N   0  0  0  0  0  0  0  0  0  0  0  0
   -0.2929   -0.9108    1.7543 N   0  0  0  0  0  0  0  0  0  0  0  0
   -1.0897   -0.6320    0.6562 C   0  0  0  0  0  0  0  0  0  0  0  0
   -1.3144   -1.4578   -0.2084 O   0  0  0  0  0  0  0  0  0  0  0  0
   -1.6013    0.7666    0.5482 C   0  0  0  0  0  0  0  0  0  0  0  0
   -2.7046    0.9719   -0.2800 C   0  0  0  0  0  0  0  0  0  0  0  0
   -3.1781    2.2805   -0.4446 C   0  0  0  0  0  0  0  0  0  0  0  0
   -2.6149    3.3367    0.1690 N   0  0  0  0  0  0  0  0  0  0  0  0
   -1.5494    3.1291    0.9631 C   0  0  0  0  0  0  0  0  0  0  0  0
   -1.0033    1.8556    1.1800 C   0  0  0  0  0  0  0  0  0  0  0  0
    0.9778   -4.2538    1.9489 N   0  0  0  0  0  0  0  0  0  0  0  0
    2.3651    0.7289   -0.0603 C   0  0  0  0  0  0  0  0  0  0  0  0
    1.8627    1.9984   -0.3428 C   0  0  0  0  0  0  0  0  0  0  0  0
   -0.2240    1.1834   -2.9358 H   0  0  0  0  0  0  0  0  0  0  0  0
    0.6805   -1.0642   -2.4414 H   0  0  0  0  0  0  0  0  0  0  0  0
    1.2669   -3.9943   -0.5393 H   0  0  0  0  0  0  0  0  0  0  0  0
    0.2058   -2.6168   -0.7430 H   0  0  0  0  0  0  0  0  0  0  0  0
   -0.3049   -0.3065    2.5805 H   0  0  0  0  0  0  0  0  0  0  0  0
   -3.1749    0.1322   -0.7952 H   0  0  0  0  0  0  0  0  0  0  0  0
   -4.0365    2.5043   -1.0892 H   0  0  0  0  0  0  0  0  0  0  0  0
   -1.1222    4.0240    1.4316 H   0  0  0  0  0  0  0  0  0  0  0  0
   -0.1219    1.7457    1.8052 H   0  0  0  0  0  0  0  0  0  0  0  0
    1.8224   -4.7228    1.6797 H   0  0  0  0  0  0  0  0  0  0  0  0
    0.7918   -4.3045    2.9390 H   0  0  0  0  0  0  0  0  0  0  0  0
    3.0911    0.6102    0.7475 H   0  0  0  0  0  0  0  0  0  0  0  0
    2.2000    2.8633    0.2272 H   0  0  0  0  0  0  0  0  0  0  0  0
  1  2  1  0
  2  3  2  0
  3  4  1  0
  4  5  2  0
  5  6  1  0
  6  7  1  0
  7  8  1  0
  8  9  2  3
  9 10  1  0
 10 11  1  0
 11 12  2  0
 11 13  1  0
 13 14  2  0
 14 15  1  0
 15 16  2  0
 16 17  1  0
 17 18  2  0
  8 19  1  0
  5 20  1  0
 20 21  2  0
 21  2  1  0
 18 13  1  0
  3 22  1  0
  4 23  1  0
  7 24  1  0
  7 25  1  0
 10 26  1  0
 14 27  1  0
 15 28  1  0
 17 29  1  0
 18 30  1  0
 19 31  1  0
 19 32  1  0
 20 33  1  0
 21 34  1  0
A    1
-0.119078
A    2
0.148294
A    3
-0.147170
A    4
-0.102153
A    5
0.053154
A    6
-0.106705
A    7
-0.261992
A    8
0.435579
A    9
-0.365250
A   10
-0.239605
A   11
0.468906
A   12
-0.516926
A   13
0.003570
A   14
-0.145792
A   15
0.093552
A   16
-0.344791
A   17
0.099525
A   18
-0.160564
A   19
-0.684001
A   20
-0.113317
A   21
-0.153353
A   22
0.130027
A   23
0.125834
A   24
0.137348
A   25
0.153205
A   26
0.288831
A   27
0.124409
A   28
0.091293
A   29
0.086354
A   30
0.112873
A   31
0.332413
A   32
0.327446
A   33
0.120160
A   34
0.127926
M  END
$$$$
