
     RDKit          3D

 34 35  0  0  0  0  0  0  0  0999 V2000
   -1.5104   -0.9025    3.4647 S   0  0  0  0  0  0  0  0  0  0  0  0
   -1.9428   -0.5485    1.6687 P   0  0  0  0  0  0  0  0  0  0  0  0
   -1.0101   -1.2466    0.5012 O   0  0  0  0  0  0  0  0  0  0  0  0
    0.2585   -0.9664    0.2262 C   0  0  0  0  0  0  0  0  0  0  0  0
    0.9607   -0.0247    0.8386 N   0  0  0  0  0  0  0  0  0  0  0  0
    2.2581    0.1720    0.4157 C   0  0  0  0  0  0  0  0  0  0  0  0
    2.8054   -0.6214   -0.6313 C   0  0  0  0  0  0  0  0  0  0  0  0
    2.0506   -1.6089   -1.2398 N   0  0  0  0  0  0  0  0  0  0  0  0
    0.8189   -1.7966   -0.8426 C   0  0  0  0  0  0  0  0  0  0  0  0
    4.1400   -0.3986   -1.0547 C   0  0  0  0  0  0  0  0  0  0  0  0
    4.8878    0.5800   -0.4471 C   0  0  0  0  0  0  0  0  0  0  0  0
    4.3413    1.3701    0.5934 C   0  0  0  0  0  0  0  0  0  0  0  0
    3.0516    1.1791    1.0238 C   0  0  0  0  0  0  0  0  0  0  0  0
   -3.2863   -1.2752    1.2161 O   0  0  0  0  0  0  0  0  0  0  0  0
   -3.8779   -1.2110   -0.1067 C   0  0  0  0  0  0  0  0  0  0  0  0
   -3.3791   -2.3673   -0.9576 C   0  0  0  0  0  0  0  0  0  0  0  0
   -2.2120    0.8848    1.0326 O   0  0  0  0  0  0  0  0  0  0  0  0
   -1.3546    2.0434    1.2343 C   0  0  0  0  0  0  0  0  0  0  0  0
   -1.1402    2.5627   -0.1821 C   0  0  0  0  0  0  0  0  0  0  0  0
    0.2075   -2.5780   -1.3089 H   0  0  0  0  0  0  0  0  0  0  0  0
    4.5464   -1.0146   -1.8595 H   0  0  0  0  0  0  0  0  0  0  0  0
    5.9164    0.7633   -0.7603 H   0  0  0  0  0  0  0  0  0  0  0  0
    4.9666    2.1400    1.0507 H   0  0  0  0  0  0  0  0  0  0  0  0
    2.6116    1.7806    1.8209 H   0  0  0  0  0  0  0  0  0  0  0  0
   -4.9428   -1.3451    0.2018 H   0  0  0  0  0  0  0  0  0  0  0  0
   -3.7830   -0.2374   -0.6218 H   0  0  0  0  0  0  0  0  0  0  0  0
   -4.0504   -2.5437   -1.8071 H   0  0  0  0  0  0  0  0  0  0  0  0
   -3.3245   -3.3008   -0.3798 H   0  0  0  0  0  0  0  0  0  0  0  0
   -2.3761   -2.1804   -1.3667 H   0  0  0  0  0  0  0  0  0  0  0  0
   -0.3913    1.8754    1.7560 H   0  0  0  0  0  0  0  0  0  0  0  0
   -1.9875    2.7229    1.8444 H   0  0  0  0  0  0  0  0  0  0  0  0
   -2.0822    2.5911   -0.7463 H   0  0  0  0  0  0  0  0  0  0  0  0
   -0.4456    1.9257   -0.7444 H   0  0  0  0  0  0  0  0  0  0  0  0
   -0.7248    3.5770   -0.1670 H   0  0  0  0  0  0  0  0  0  0  0  0
  1  2  2  0
  2  3  1  0
  3  4  1  0
  4  5  2  0
  5  6  1  0
  6  7  2  0
  7  8  1  0
  8  9  2  0
  7 10  1  0
 10 11  2  0
 11 12  1  0
 12 13  2  0
  2 14  1  0
 14 15  1  0
 15 16  1  0
  2 17  1  0
 17 18  1  0
 18 19  1  0
  9  4  1  0
 13  6  1  0
  9 20  1  0
 10 21  1  0
 11 22  1  0
 12 23  1  0
 13 24  1  0
 15 25  1  0
 15 26  1  0
 16 27  1  0
 16 28  1  0
 16 29  1  0
 18 30  1  0
 18 31  1  0
 19 32  1  0
 19 33  1  0
 19 34  1  0
A    1
-0.557112
A    2
1.105298
A    3
-0.395520
A    4
0.424602
A    5
-0.419434
A    6
0.188979
A    7
0.137180
A    8
-0.293953
A    9
-0.013929
A   10
-0.148781
A   11
-0.093546
A   12
-0.074471
A   13
-0.163679
A   14
-0.428686
A   15
0.172785
A   16
-0.369600
A   17
-0.404940
A   18
0.151881
A   19
-0.363043
A   20
0.119028
A   21
0.124254
A   22
0.111963
A   23
0.111375
A   24
0.124969
A   25
0.064120
A   26
0.066714
A   27
0.117108
A   28
0.124041
A   29
0.107694
A   30
0.061237
A   31
0.062947
A   32
0.119996
A   33
0.114040
A   34
0.116483
M  END
$$$$
