
     RDKit          3D

 34 36  0  0  0  0  0  0  0  0999 V2000
   -0.5830   -4.3311    0.7275 C   0  0  0  0  0  0  0  0  0  0  0  0
    0.0631   -3.3606    0.4018 C   0  0  0  0  0  0  0  0  0  0  0  0
    0.8298   -2.2162    0.0168 C   0  0  1  0  0  0  0  0  0  0  0  0
   -0.0109   -0.9144    0.0457 C   0  0  0  0  0  0  0  0  0  0  0  0
    0.9291    0.1797    0.4019 N   0  0  0  0  0  0  0  0  0  0  0  0
    0.2719    1.2773    1.1578 C   0  0  0  0  0  0  0  0  0  0  0  0
   -0.7780    1.9227    0.3343 C   0  0  0  0  0  0  0  0  0  0  0  0
   -2.1166    1.5276    0.2136 C   0  0  0  0  0  0  0  0  0  0  0  0
   -2.7891    2.3749   -0.6419 N   0  0  0  0  0  0  0  0  0  0  0  0
   -1.8970    3.3431   -1.0889 C   0  0  0  0  0  0  0  0  0  0  0  0
   -2.0031    4.4646   -1.9577 C   0  0  0  0  0  0  0  0  0  0  0  0
   -3.1766    4.8734   -2.5267 N   0  0  0  0  0  0  0  0  0  0  0  0
   -0.8977    5.2196   -2.1908 N   0  0  0  0  0  0  0  0  0  0  0  0
    0.2723    4.8941   -1.5612 C   0  0  0  0  0  0  0  0  0  0  0  0
    0.4670    3.8727   -0.7246 N   0  0  0  0  0  0  0  0  0  0  0  0
   -0.6155    3.0771   -0.4843 C   0  0  0  0  0  0  0  0  0  0  0  0
    2.0548   -0.4092    1.1762 C   0  0  0  0  0  0  0  0  0  0  0  0
    2.0049   -1.9394    0.9938 C   0  0  2  0  0  0  0  0  0  0  0  0
    3.2370   -2.3005    0.4086 O   0  0  0  0  0  0  0  0  0  0  0  0
   -1.1330   -5.1571    1.0033 H   0  0  0  0  0  0  0  0  0  0  0  0
    1.2545   -2.3560   -1.0176 H   0  0  0  0  0  0  0  0  0  0  0  0
   -0.8629   -1.0087    0.7483 H   0  0  0  0  0  0  0  0  0  0  0  0
   -0.4331   -0.6821   -0.9542 H   0  0  0  0  0  0  0  0  0  0  0  0
    1.0697    2.0273    1.3998 H   0  0  0  0  0  0  0  0  0  0  0  0
   -0.1516    0.9359    2.1317 H   0  0  0  0  0  0  0  0  0  0  0  0
   -2.6186    0.6972    0.6883 H   0  0  0  0  0  0  0  0  0  0  0  0
   -3.7576    2.3208   -0.8901 H   0  0  0  0  0  0  0  0  0  0  0  0
   -3.1672    5.6265   -3.1996 H   0  0  0  0  0  0  0  0  0  0  0  0
   -3.9680    4.2586   -2.5646 H   0  0  0  0  0  0  0  0  0  0  0  0
    1.1306    5.5538   -1.7846 H   0  0  0  0  0  0  0  0  0  0  0  0
    2.0448   -0.1410    2.2501 H   0  0  0  0  0  0  0  0  0  0  0  0
    2.9976    0.0038    0.7459 H   0  0  0  0  0  0  0  0  0  0  0  0
    1.9075   -2.4894    1.9510 H   0  0  0  0  0  0  0  0  0  0  0  0
    3.2546   -3.2536    0.1765 H   0  0  0  0  0  0  0  0  0  0  0  0
  1  2  3  0
  2  3  1  0
  3  4  1  0
  4  5  1  0
  5  6  1  0
  6  7  1  0
  7  8  2  0
  8  9  1  0
  9 10  1  0
 10 11  2  0
 11 12  1  0
 11 13  1  0
 13 14  2  0
 14 15  1  0
 15 16  2  0
  5 17  1  0
 17 18  1  0
 18 19  1  0
 18  3  1  0
 16  7  1  0
 16 10  1  0
  1 20  1  0
  3 21  1  6
  4 22  1  0
  4 23  1  0
  6 24  1  0
  6 25  1  0
  8 26  1  0
  9 27  1  0
 12 28  1  0
 12 29  1  0
 14 30  1  0
 17 31  1  0
 17 32  1  0
 18 33  1  1
 19 34  1  0
A    1
-0.407178
A    2
0.005954
A    3
-0.033998
A    4
-0.048541
A    5
-0.197740
A    6
-0.037108
A    7
-0.084894
A    8
-0.031600
A    9
-0.254412
A   10
-0.042084
A   11
0.406849
A   12
-0.660963
A   13
-0.512100
A   14
0.250958
A   15
-0.440628
A   16
0.148117
A   17
-0.087060
A   18
0.242544
A   19
-0.582572
A   20
0.247671
A   21
0.104215
A   22
0.054585
A   23
0.066908
A   24
0.084034
A   25
0.047088
A   26
0.123127
A   27
0.321497
A   28
0.350521
A   29
0.334582
A   30
0.071108
A   31
0.064237
A   32
0.081952
A   33
0.031211
A   34
0.383723
M  END
$$$$
