
     RDKit          3D

 32 33  0  0  0  0  0  0  0  0999 V2000
    2.8985    1.6634   -1.4972 F   0  0  0  0  0  0  0  0  0  0  0  0
    3.6623    0.7304   -0.9360 C   0  0  0  0  0  0  0  0  0  0  0  0
    4.3828    1.3619   -0.0162 F   0  0  0  0  0  0  0  0  0  0  0  0
    4.5186    0.3600   -1.8794 F   0  0  0  0  0  0  0  0  0  0  0  0
    2.8265   -0.4433   -0.3733 C   0  0  0  0  0  0  0  0  0  0  0  0
    2.1072   -0.9430   -1.5067 O   0  0  0  0  0  0  0  0  0  0  0  0
    0.7369   -0.7780   -1.3268 C   0  0  0  0  0  0  0  0  0  0  0  0
   -0.0525   -1.1237   -2.1516 O   0  0  0  0  0  0  0  0  0  0  0  0
    0.5265   -0.1895   -0.0650 N   0  0  0  0  0  0  0  0  0  0  0  0
    1.7349    0.0691    0.5948 C   0  0  0  0  0  0  0  0  0  0  0  0
    1.8645    0.5624    1.6751 O   0  0  0  0  0  0  0  0  0  0  0  0
   -0.7989    0.1971    0.4597 C   0  0  0  0  0  0  0  0  0  0  0  0
   -1.4413    1.2482   -0.4648 C   0  0  0  0  0  0  0  0  0  0  0  0
   -2.8054    1.6515    0.1048 C   0  0  0  0  0  0  0  0  0  0  0  0
   -3.7142    0.4241    0.2502 C   0  0  0  0  0  0  0  0  0  0  0  0
   -3.0580   -0.6351    1.1455 C   0  0  0  0  0  0  0  0  0  0  0  0
   -1.6952   -1.0493    0.5801 C   0  0  0  0  0  0  0  0  0  0  0  0
    3.6520   -1.5533    0.2182 C   0  0  0  0  0  0  0  0  0  0  0  0
   -0.6294    0.6420    1.4801 H   0  0  0  0  0  0  0  0  0  0  0  0
   -1.5612    0.8403   -1.4887 H   0  0  0  0  0  0  0  0  0  0  0  0
   -0.7852    2.1327   -0.5619 H   0  0  0  0  0  0  0  0  0  0  0  0
   -3.2816    2.3998   -0.5567 H   0  0  0  0  0  0  0  0  0  0  0  0
   -2.6798    2.1508    1.0840 H   0  0  0  0  0  0  0  0  0  0  0  0
   -4.6925    0.7226    0.6689 H   0  0  0  0  0  0  0  0  0  0  0  0
   -3.9280   -0.0063   -0.7471 H   0  0  0  0  0  0  0  0  0  0  0  0
   -3.7149   -1.5213    1.2284 H   0  0  0  0  0  0  0  0  0  0  0  0
   -2.9444   -0.2462    2.1749 H   0  0  0  0  0  0  0  0  0  0  0  0
   -1.2207   -1.8075    1.2282 H   0  0  0  0  0  0  0  0  0  0  0  0
   -1.8246   -1.5290   -0.4113 H   0  0  0  0  0  0  0  0  0  0  0  0
    4.3530   -1.9852   -0.5154 H   0  0  0  0  0  0  0  0  0  0  0  0
    3.0212   -2.3884    0.5629 H   0  0  0  0  0  0  0  0  0  0  0  0
    4.2425   -1.2142    1.0848 H   0  0  0  0  0  0  0  0  0  0  0  0
  1  2  1  0
  2  3  1  0
  2  4  1  0
  2  5  1  0
  5  6  1  0
  6  7  1  0
  7  8  2  0
  7  9  1  0
  9 10  1  0
 10 11  2  0
  9 12  1  0
 12 13  1  0
 13 14  1  0
 14 15  1  0
 15 16  1  0
 16 17  1  0
  5 18  1  0
 10  5  1  0
 17 12  1  0
 12 19  1  0
 13 20  1  0
 13 21  1  0
 14 22  1  0
 14 23  1  0
 15 24  1  0
 15 25  1  0
 16 26  1  0
 16 27  1  0
 17 28  1  0
 17 29  1  0
 18 30  1  0
 18 31  1  0
 18 32  1  0
A    1
-0.232846
A    2
0.708388
A    3
-0.226845
A    4
-0.220999
A    5
0.052935
A    6
-0.313283
A    7
0.680725
A    8
-0.501003
A    9
-0.294484
A   10
0.461188
A   11
-0.447073
A   12
0.162318
A   13
-0.190093
A   14
-0.117859
A   15
-0.127253
A   16
-0.118494
A   17
-0.188477
A   18
-0.395527
A   19
0.069556
A   20
0.091025
A   21
0.086309
A   22
0.074837
A   23
0.069785
A   24
0.068266
A   25
0.072153
A   26
0.073563
A   27
0.069422
A   28
0.084035
A   29
0.090853
A   30
0.152888
A   31
0.154397
A   32
0.151591
M  END
$$$$
