
     RDKit          3D

 30 31  0  0  0  0  0  0  0  0999 V2000
   -0.0264   -1.5092    0.1780 S   0  0  0  0  0  0  0  0  0  0  0  0
   -0.3928   -2.5687    1.0731 O   0  0  0  0  0  0  0  0  0  0  0  0
   -0.0610   -1.7057   -1.2512 O   0  0  0  0  0  0  0  0  0  0  0  0
   -1.2497   -0.2058    0.4293 N   0  0  0  0  0  0  0  0  0  0  0  0
   -1.2900    0.5987    1.5208 C   0  0  0  0  0  0  0  0  0  0  0  0
   -0.1948    0.6886    2.7405 S   0  0  0  0  0  0  0  0  0  0  0  0
   -2.7249    1.6714    1.5168 S   0  0  0  0  0  0  0  0  0  0  0  0
   -3.4441    0.8767    0.0434 C   0  0  0  0  0  0  0  0  0  0  0  0
   -2.3475   -0.0207   -0.5882 C   0  0  0  0  0  0  0  0  0  0  0  0
   -1.7594    0.6740   -1.8245 C   0  0  0  0  0  0  0  0  0  0  0  0
   -2.9714   -1.3682   -0.9656 C   0  0  0  0  0  0  0  0  0  0  0  0
    1.5109   -0.8188    0.6077 C   0  0  0  0  0  0  0  0  0  0  0  0
    2.1757   -1.2610    1.7526 C   0  0  0  0  0  0  0  0  0  0  0  0
    3.4125   -0.7126    2.0889 C   0  0  0  0  0  0  0  0  0  0  0  0
    3.9794    0.2749    1.2856 C   0  0  0  0  0  0  0  0  0  0  0  0
    3.3190    0.7072    0.1357 C   0  0  0  0  0  0  0  0  0  0  0  0
    2.0852    0.1584   -0.2064 C   0  0  0  0  0  0  0  0  0  0  0  0
   -3.8014    1.6407   -0.6665 H   0  0  0  0  0  0  0  0  0  0  0  0
   -4.3315    0.2887    0.3395 H   0  0  0  0  0  0  0  0  0  0  0  0
   -2.5398    0.8952   -2.5604 H   0  0  0  0  0  0  0  0  0  0  0  0
   -1.2584    1.6144   -1.5718 H   0  0  0  0  0  0  0  0  0  0  0  0
   -1.0230    0.0354   -2.3409 H   0  0  0  0  0  0  0  0  0  0  0  0
   -2.3179   -1.9647   -1.6250 H   0  0  0  0  0  0  0  0  0  0  0  0
   -3.9060   -1.2269   -1.5202 H   0  0  0  0  0  0  0  0  0  0  0  0
   -3.1976   -1.9850   -0.0855 H   0  0  0  0  0  0  0  0  0  0  0  0
    1.7367   -2.0308    2.4010 H   0  0  0  0  0  0  0  0  0  0  0  0
    3.9281   -1.0490    2.9865 H   0  0  0  0  0  0  0  0  0  0  0  0
    4.9397    0.7121    1.5569 H   0  0  0  0  0  0  0  0  0  0  0  0
    3.7647    1.4757   -0.4919 H   0  0  0  0  0  0  0  0  0  0  0  0
    1.5853    0.5026   -1.1164 H   0  0  0  0  0  0  0  0  0  0  0  0
  1  2  2  0
  1  3  2  0
  1  4  1  0
  4  5  1  0
  5  6  2  0
  5  7  1  0
  7  8  1  0
  8  9  1  0
  9 10  1  0
  9 11  1  0
  1 12  1  0
 12 13  2  0
 13 14  1  0
 14 15  2  0
 15 16  1  0
 16 17  2  0
  9  4  1  0
 17 12  1  0
  8 18  1  0
  8 19  1  0
 10 20  1  0
 10 21  1  0
 10 22  1  0
 11 23  1  0
 11 24  1  0
 11 25  1  0
 13 26  1  0
 14 27  1  0
 15 28  1  0
 16 29  1  0
 17 30  1  0
A    1
1.146868
A    2
-0.531014
A    3
-0.541356
A    4
-0.306485
A    5
0.215888
A    6
-0.420567
A    7
-0.010290
A    8
-0.221902
A    9
0.366378
A   10
-0.431022
A   11
-0.431268
A   12
-0.118514
A   13
-0.054614
A   14
-0.085070
A   15
-0.053389
A   16
-0.089503
A   17
-0.070243
A   18
0.132612
A   19
0.121341
A   20
0.130451
A   21
0.125875
A   22
0.132489
A   23
0.134989
A   24
0.133088
A   25
0.133565
A   26
0.121645
A   27
0.118171
A   28
0.112523
A   29
0.117707
A   30
0.121648
M  END
$$$$
