
     RDKit          3D

 38 40  0  0  0  0  0  0  0  0999 V2000
    4.6872   -1.3461   -3.9835 C   0  0  0  0  0  0  0  0  0  0  0  0
    3.7143   -1.5251   -2.8694 C   0  0  0  0  0  0  0  0  0  0  0  0
    3.9448   -0.9658   -1.6652 C   0  0  0  0  0  0  0  0  0  0  0  0
    3.1099   -1.1376   -0.5540 N   0  0  0  0  0  0  0  0  0  0  0  0
    2.6135   -0.1319    0.3200 C   0  0  0  0  0  0  0  0  0  0  0  0
    3.1076    0.8683    0.7287 O   0  0  0  0  0  0  0  0  0  0  0  0
    1.2614   -0.9174    0.5132 C   0  0  1  0  0  0  0  0  0  0  0  0
    0.1022   -0.1495    0.1683 N   0  0  0  0  0  0  0  0  0  0  0  0
   -1.1110   -0.4426    0.7609 C   0  0  0  0  0  0  0  0  0  0  0  0
   -1.2085   -1.3383    1.5756 O   0  0  0  0  0  0  0  0  0  0  0  0
   -2.2916    0.4569    0.3667 C   0  0  1  0  0  0  0  0  0  0  0  0
   -3.4212   -0.4351    0.0349 N   0  0  0  0  0  0  0  0  0  0  0  0
   -2.5648    1.3931    1.5204 C   0  0  0  0  0  0  0  0  0  0  0  0
   -2.5585    2.7714    1.3072 C   0  0  0  0  0  0  0  0  0  0  0  0
   -2.8297    3.6382    2.3638 C   0  0  0  0  0  0  0  0  0  0  0  0
   -3.1066    3.1305    3.6319 C   0  0  0  0  0  0  0  0  0  0  0  0
   -3.1102    1.7528    3.8448 C   0  0  0  0  0  0  0  0  0  0  0  0
   -2.8403    0.8847    2.7908 C   0  0  0  0  0  0  0  0  0  0  0  0
    1.8423   -1.9193   -0.5699 C   0  0  1  0  0  0  0  0  0  0  0  0
    1.0429   -1.9186   -2.2139 S   0  0  0  0  0  0  0  0  0  0  0  0
    2.5295   -2.3620   -3.1987 C   0  0  0  0  0  0  0  0  0  0  0  0
    4.2674   -0.7145   -4.7830 H   0  0  0  0  0  0  0  0  0  0  0  0
    5.6270   -0.8719   -3.6642 H   0  0  0  0  0  0  0  0  0  0  0  0
    4.9590   -2.3080   -4.4457 H   0  0  0  0  0  0  0  0  0  0  0  0
    4.8213   -0.3384   -1.4551 H   0  0  0  0  0  0  0  0  0  0  0  0
    1.1673   -1.3930    1.5220 H   0  0  0  0  0  0  0  0  0  0  0  0
    0.1873    0.5497   -0.5638 H   0  0  0  0  0  0  0  0  0  0  0  0
   -2.0574    1.0417   -0.5684 H   0  0  0  0  0  0  0  0  0  0  0  0
   -4.2675    0.0991   -0.1287 H   0  0  0  0  0  0  0  0  0  0  0  0
   -3.6044   -1.0929    0.7864 H   0  0  0  0  0  0  0  0  0  0  0  0
   -2.3426    3.1767    0.3180 H   0  0  0  0  0  0  0  0  0  0  0  0
   -2.8231    4.7156    2.1984 H   0  0  0  0  0  0  0  0  0  0  0  0
   -3.3180    3.8100    4.4578 H   0  0  0  0  0  0  0  0  0  0  0  0
   -3.3193    1.3539    4.8378 H   0  0  0  0  0  0  0  0  0  0  0  0
   -2.8335   -0.1945    2.9629 H   0  0  0  0  0  0  0  0  0  0  0  0
    1.9901   -2.9537   -0.1985 H   0  0  0  0  0  0  0  0  0  0  0  0
    2.7657   -3.4401   -3.0557 H   0  0  0  0  0  0  0  0  0  0  0  0
    2.2417   -2.2608   -4.2684 H   0  0  0  0  0  0  0  0  0  0  0  0
  1  2  1  0
  2  3  2  0
  3  4  1  0
  4  5  1  0
  5  6  2  0
  5  7  1  0
  7  8  1  0
  8  9  1  0
  9 10  2  0
  9 11  1  0
 11 12  1  0
 11 13  1  0
 13 14  2  0
 14 15  1  0
 15 16  2  0
 16 17  1  0
 17 18  2  0
  7 19  1  0
 19 20  1  0
 20 21  1  0
 21  2  1  0
 19  4  1  0
 18 13  1  0
  1 22  1  0
  1 23  1  0
  1 24  1  0
  3 25  1  0
  7 26  1  1
  8 27  1  0
 11 28  1  6
 12 29  1  0
 12 30  1  0
 14 31  1  0
 15 32  1  0
 16 33  1  0
 17 34  1  0
 18 35  1  0
 19 36  1  1
 21 37  1  0
 21 38  1  0
A    1
-0.366980
A    2
0.091774
A    3
-0.100121
A    4
-0.157346
A    5
0.458495
A    6
-0.468630
A    7
0.023003
A    8
-0.411554
A    9
0.529468
A   10
-0.531145
A   11
0.044372
A   12
-0.682404
A   13
0.045060
A   14
-0.151247
A   15
-0.093543
A   16
-0.105373
A   17
-0.091535
A   18
-0.137316
A   19
0.033884
A   20
-0.146941
A   21
-0.171889
A   22
0.116962
A   23
0.121288
A   24
0.118757
A   25
0.114569
A   26
0.116169
A   27
0.297567
A   28
0.075261
A   29
0.291320
A   30
0.285109
A   31
0.105049
A   32
0.103316
A   33
0.100305
A   34
0.105490
A   35
0.106509
A   36
0.091646
A   37
0.109927
A   38
0.130723
M  END
$$$$
