
     RDKit          3D

 38 41  0  0  0  0  0  0  0  0999 V2000
   -1.2877    2.3296    1.2348 O   0  0  0  0  0  0  0  0  0  0  0  0
   -1.1872    1.4134    0.4555 C   0  0  0  0  0  0  0  0  0  0  0  0
   -0.9662    1.6024   -0.9966 C   0  0  0  0  0  0  0  0  0  0  0  0
   -2.0231    2.1305   -1.7347 C   0  0  0  0  0  0  0  0  0  0  0  0
   -1.8994    2.2741   -3.1133 C   0  0  0  0  0  0  0  0  0  0  0  0
   -0.7037    1.9170   -3.7292 C   0  0  0  0  0  0  0  0  0  0  0  0
    0.3586    1.4158   -2.9774 C   0  0  0  0  0  0  0  0  0  0  0  0
    0.2376    1.2181   -1.6012 C   0  0  0  0  0  0  0  0  0  0  0  0
    1.3595    0.7430   -0.7398 C   0  0  2  0  0  0  0  0  0  0  0  0
    2.5226   -0.1435   -1.3147 C   0  0  2  0  0  0  0  0  0  0  0  0
    2.7661   -0.3465   -2.7680 C   0  0  0  0  0  0  0  0  0  0  0  0
    2.4899   -1.3019   -3.4485 O   0  0  0  0  0  0  0  0  0  0  0  0
    3.4727    0.6895   -3.2799 O   0  0  0  0  0  0  0  0  0  0  0  0
    1.9699   -1.3761   -0.5510 C   0  0  2  0  0  0  0  0  0  0  0  0
    1.1725   -2.3085   -1.4168 C   0  0  0  0  0  0  0  0  0  0  0  0
    0.1995   -2.0847   -2.0863 O   0  0  0  0  0  0  0  0  0  0  0  0
    1.6776   -3.5633   -1.3158 O   0  0  0  0  0  0  0  0  0  0  0  0
    1.0825   -0.4167    0.3019 C   0  0  2  0  0  0  0  0  0  0  0  0
   -0.2704   -0.8880    0.6923 C   0  0  0  0  0  0  0  0  0  0  0  0
   -0.4553   -2.2313    1.0389 C   0  0  0  0  0  0  0  0  0  0  0  0
   -1.6924   -2.6772    1.4934 C   0  0  0  0  0  0  0  0  0  0  0  0
   -2.7547   -1.7848    1.6364 C   0  0  0  0  0  0  0  0  0  0  0  0
   -2.5741   -0.4417    1.3227 C   0  0  0  0  0  0  0  0  0  0  0  0
   -1.3382   -0.0048    0.8473 C   0  0  0  0  0  0  0  0  0  0  0  0
   -2.9462    2.4287   -1.2339 H   0  0  0  0  0  0  0  0  0  0  0  0
   -2.7276    2.6676   -3.7015 H   0  0  0  0  0  0  0  0  0  0  0  0
   -0.5904    2.0337   -4.8086 H   0  0  0  0  0  0  0  0  0  0  0  0
    1.2840    1.2006   -3.5029 H   0  0  0  0  0  0  0  0  0  0  0  0
    1.7823    1.6430   -0.2267 H   0  0  0  0  0  0  0  0  0  0  0  0
    3.4928    0.1996   -0.8589 H   0  0  0  0  0  0  0  0  0  0  0  0
    3.7070    0.5868   -4.2443 H   0  0  0  0  0  0  0  0  0  0  0  0
    2.7351   -1.9292    0.0333 H   0  0  0  0  0  0  0  0  0  0  0  0
    1.2146   -4.2325   -1.8905 H   0  0  0  0  0  0  0  0  0  0  0  0
    1.6172   -0.1600    1.2578 H   0  0  0  0  0  0  0  0  0  0  0  0
    0.3718   -2.9389    0.9597 H   0  0  0  0  0  0  0  0  0  0  0  0
   -1.8298   -3.7303    1.7435 H   0  0  0  0  0  0  0  0  0  0  0  0
   -3.7209   -2.1376    1.9959 H   0  0  0  0  0  0  0  0  0  0  0  0
   -3.3955    0.2673    1.4457 H   0  0  0  0  0  0  0  0  0  0  0  0
  1  2  2  0
  2  3  1  0
  3  4  2  0
  4  5  1  0
  5  6  2  0
  6  7  1  0
  7  8  2  0
  8  9  1  0
  9 10  1  0
 10 11  1  0
 11 12  2  0
 11 13  1  0
 10 14  1  0
 14 15  1  0
 15 16  2  0
 15 17  1  0
 14 18  1  0
 18 19  1  0
 19 20  2  0
 20 21  1  0
 21 22  2  0
 22 23  1  0
 23 24  2  0
 24  2  1  0
  8  3  1  0
 18  9  1  0
 24 19  1  0
  4 25  1  0
  5 26  1  0
  6 27  1  0
  7 28  1  0
  9 29  1  1
 10 30  1  1
 13 31  1  0
 14 32  1  1
 17 33  1  0
 18 34  1  1
 20 35  1  0
 21 36  1  0
 22 37  1  0
 23 38  1  0
A    1
-0.457032
A    2
0.447362
A    3
-0.074333
A    4
-0.110738
A    5
-0.100256
A    6
-0.083802
A    7
-0.137913
A    8
0.065035
A    9
-0.033712
A   10
-0.143024
A   11
0.663493
A   12
-0.525262
A   13
-0.547227
A   14
-0.159650
A   15
0.667299
A   16
-0.542721
A   17
-0.560235
A   18
-0.044600
A   19
0.062647
A   20
-0.135871
A   21
-0.083495
A   22
-0.102342
A   23
-0.102622
A   24
-0.080382
A   25
0.111564
A   26
0.109887
A   27
0.106883
A   28
0.097401
A   29
0.085007
A   30
0.124183
A   31
0.423238
A   32
0.108364
A   33
0.420775
A   34
0.096064
A   35
0.108863
A   36
0.107402
A   37
0.109609
A   38
0.110141
M  END
$$$$
