
     RDKit          3D

 40 42  0  0  0  0  0  0  0  0999 V2000
    1.6124    4.0410   -0.1537 C   0  0  0  0  0  0  0  0  0  0  0  0
    2.0610    2.9792    0.7696 N   0  0  0  0  0  0  0  0  0  0  0  0
    1.0503    2.6628    1.7990 C   0  0  0  0  0  0  0  0  0  0  0  0
   -0.1887    1.9375    1.2353 C   0  0  0  0  0  0  0  0  0  0  0  0
    0.2187    0.6849    0.5484 N   0  0  0  0  0  0  0  0  0  0  0  0
   -1.0009   -0.0091    0.0507 C   0  0  0  0  0  0  0  0  0  0  0  0
   -1.5355   -0.8299    1.1925 C   0  0  0  0  0  0  0  0  0  0  0  0
   -2.7650   -0.5162    1.7764 C   0  0  0  0  0  0  0  0  0  0  0  0
   -3.2400   -1.2598    2.8547 C   0  0  0  0  0  0  0  0  0  0  0  0
   -2.4918   -2.3186    3.3678 C   0  0  0  0  0  0  0  0  0  0  0  0
   -1.2672   -2.6522    2.7922 C   0  0  0  0  0  0  0  0  0  0  0  0
   -0.8194   -1.9059    1.7101 C   0  0  0  0  0  0  0  0  0  0  0  0
    0.6725   -2.3480    0.9975 Cl  0  0  0  0  0  0  0  0  0  0  0  0
    1.2035    0.9615   -0.5291 C   0  0  0  0  0  0  0  0  0  0  0  0
    1.7331   -0.3379   -1.0665 C   0  0  0  0  0  0  0  0  0  0  0  0
    2.8220   -0.9838   -0.8129 N   0  0  0  0  0  0  0  0  0  0  0  0
    2.8545   -2.2090   -1.6338 C   0  0  0  0  0  0  0  0  0  0  0  0
    1.5306   -2.1485   -2.4395 C   0  0  0  0  0  0  0  0  0  0  0  0
    0.9315   -0.8959   -2.0432 O   0  0  0  0  0  0  0  0  0  0  0  0
    2.4212    1.7432    0.0606 C   0  0  0  0  0  0  0  0  0  0  0  0
    2.4306    4.2793   -0.8544 H   0  0  0  0  0  0  0  0  0  0  0  0
    1.3942    4.9551    0.4225 H   0  0  0  0  0  0  0  0  0  0  0  0
    0.7185    3.7909   -0.7443 H   0  0  0  0  0  0  0  0  0  0  0  0
    1.5439    2.0177    2.5634 H   0  0  0  0  0  0  0  0  0  0  0  0
    0.7427    3.5957    2.3151 H   0  0  0  0  0  0  0  0  0  0  0  0
   -0.7679    2.6190    0.5760 H   0  0  0  0  0  0  0  0  0  0  0  0
   -0.8620    1.6488    2.0751 H   0  0  0  0  0  0  0  0  0  0  0  0
   -1.7696    0.6976   -0.3387 H   0  0  0  0  0  0  0  0  0  0  0  0
   -0.7669   -0.6779   -0.8115 H   0  0  0  0  0  0  0  0  0  0  0  0
   -3.3546    0.3157    1.3896 H   0  0  0  0  0  0  0  0  0  0  0  0
   -4.2014   -1.0084    3.3023 H   0  0  0  0  0  0  0  0  0  0  0  0
   -2.8638   -2.8862    4.2205 H   0  0  0  0  0  0  0  0  0  0  0  0
   -0.6803   -3.4802    3.1916 H   0  0  0  0  0  0  0  0  0  0  0  0
    0.7503    1.5488   -1.3741 H   0  0  0  0  0  0  0  0  0  0  0  0
    3.7546   -2.2069   -2.2794 H   0  0  0  0  0  0  0  0  0  0  0  0
    2.9196   -3.0997   -0.9772 H   0  0  0  0  0  0  0  0  0  0  0  0
    0.8071   -2.9317   -2.1719 H   0  0  0  0  0  0  0  0  0  0  0  0
    1.6636   -2.0863   -3.5281 H   0  0  0  0  0  0  0  0  0  0  0  0
    2.9560    1.0848    0.7889 H   0  0  0  0  0  0  0  0  0  0  0  0
    3.1405    1.9725   -0.7540 H   0  0  0  0  0  0  0  0  0  0  0  0
  1  2  1  0
  2  3  1  0
  3  4  1  0
  4  5  1  0
  5  6  1  0
  6  7  1  0
  7  8  2  0
  8  9  1  0
  9 10  2  0
 10 11  1  0
 11 12  2  0
 12 13  1  0
  5 14  1  0
 14 15  1  0
 15 16  2  0
 16 17  1  0
 17 18  1  0
 18 19  1  0
 14 20  1  0
 20  2  1  0
 12  7  1  0
 19 15  1  0
  1 21  1  0
  1 22  1  0
  1 23  1  0
  3 24  1  0
  3 25  1  0
  4 26  1  0
  4 27  1  0
  6 28  1  0
  6 29  1  0
  8 30  1  0
  9 31  1  0
 10 32  1  0
 11 33  1  0
 14 34  1  0
 17 35  1  0
 17 36  1  0
 18 37  1  0
 18 38  1  0
 20 39  1  0
 20 40  1  0
A    1
-0.229575
A    2
-0.173287
A    3
-0.052041
A    4
-0.055715
A    5
-0.191978
A    6
-0.083995
A    7
0.032824
A    8
-0.138222
A    9
-0.106180
A   10
-0.085911
A   11
-0.164215
A   12
0.101623
A   13
-0.102348
A   14
-0.003426
A   15
0.391623
A   16
-0.476780
A   17
-0.011258
A   18
0.039458
A   19
-0.291683
A   20
-0.075310
A   21
0.102313
A   22
0.099883
A   23
0.071534
A   24
0.072694
A   25
0.076906
A   26
0.047471
A   27
0.076810
A   28
0.065395
A   29
0.084753
A   30
0.110034
A   31
0.103868
A   32
0.108868
A   33
0.123390
A   34
0.064108
A   35
0.084255
A   36
0.081283
A   37
0.067572
A   38
0.076919
A   39
0.075515
A   40
0.082829
M  END
$$$$
