
     RDKit          3D

 35 35  0  0  0  0  0  0  0  0999 V2000
    1.3158   -2.6714   -3.9876 C   0  0  0  0  0  0  0  0  0  0  0  0
    0.7270   -3.2991   -2.8607 O   0  0  0  0  0  0  0  0  0  0  0  0
    0.5949   -2.4635   -1.7383 C   0  0  0  0  0  0  0  0  0  0  0  0
   -0.4703   -1.3993   -1.9108 C   0  0  0  0  0  0  0  0  0  0  0  0
   -1.0000   -1.1411   -2.9568 O   0  0  0  0  0  0  0  0  0  0  0  0
   -0.8208   -0.6572   -0.6650 C   0  0  0  0  0  0  0  0  0  0  0  0
    0.1958   -0.2729    0.0880 N   0  0  0  0  0  0  0  0  0  0  0  0
    0.0006    0.4567    1.1563 N   0  0  0  0  0  0  0  0  0  0  0  0
    1.1109    0.8100    1.9299 C   0  0  0  0  0  0  0  0  0  0  0  0
    1.0132    1.4164    3.2362 C   0  0  0  0  0  0  0  0  0  0  0  0
   -0.2076    1.7522    3.9878 C   0  0  0  0  0  0  0  0  0  0  0  0
    2.2595    1.6544    3.7084 N   0  0  0  0  0  0  0  0  0  0  0  0
    3.1343    1.2238    2.7624 N   0  0  0  0  0  0  0  0  0  0  0  0
    2.4869    0.7018    1.6537 C   0  0  0  0  0  0  0  0  0  0  0  0
    3.1973    0.1640    0.4860 C   0  0  0  0  0  0  0  0  0  0  0  0
   -2.2266   -0.3718   -0.3829 C   0  0  0  0  0  0  0  0  0  0  0  0
   -2.6127    0.3209    0.5426 O   0  0  0  0  0  0  0  0  0  0  0  0
   -3.0697   -0.9945   -1.2274 O   0  0  0  0  0  0  0  0  0  0  0  0
   -4.4583   -0.7477   -1.0042 C   0  0  0  0  0  0  0  0  0  0  0  0
    2.3093   -2.2837   -3.7521 H   0  0  0  0  0  0  0  0  0  0  0  0
    1.3829   -3.4933   -4.7108 H   0  0  0  0  0  0  0  0  0  0  0  0
    0.6642   -1.8814   -4.3800 H   0  0  0  0  0  0  0  0  0  0  0  0
    1.5624   -2.0029   -1.4606 H   0  0  0  0  0  0  0  0  0  0  0  0
    0.3029   -3.1837   -0.9442 H   0  0  0  0  0  0  0  0  0  0  0  0
   -0.9449    0.7382    1.4670 H   0  0  0  0  0  0  0  0  0  0  0  0
   -0.8293    2.4870    3.4498 H   0  0  0  0  0  0  0  0  0  0  0  0
    0.0262    2.1938    4.9733 H   0  0  0  0  0  0  0  0  0  0  0  0
   -0.8289    0.8614    4.1766 H   0  0  0  0  0  0  0  0  0  0  0  0
    4.1142    1.3180    2.9333 H   0  0  0  0  0  0  0  0  0  0  0  0
    4.2454    0.4850    0.4219 H   0  0  0  0  0  0  0  0  0  0  0  0
    3.1846   -0.9415    0.4849 H   0  0  0  0  0  0  0  0  0  0  0  0
    2.7011    0.4749   -0.4549 H   0  0  0  0  0  0  0  0  0  0  0  0
   -4.7551   -1.1135   -0.0162 H   0  0  0  0  0  0  0  0  0  0  0  0
   -4.6748    0.3217   -1.0982 H   0  0  0  0  0  0  0  0  0  0  0  0
   -4.9314   -1.3240   -1.8093 H   0  0  0  0  0  0  0  0  0  0  0  0
  1  2  1  0
  2  3  1  0
  3  4  1  0
  4  5  2  0
  4  6  1  0
  6  7  2  3
  7  8  1  0
  8  9  1  0
  9 10  1  0
 10 11  1  0
 10 12  2  0
 12 13  1  0
 13 14  1  0
 14 15  1  0
  6 16  1  0
 16 17  2  0
 16 18  1  0
 18 19  1  0
 14  9  2  0
  1 20  1  0
  1 21  1  0
  1 22  1  0
  3 23  1  0
  3 24  1  0
  8 25  1  0
 11 26  1  0
 11 27  1  0
 11 28  1  0
 13 29  1  0
 15 30  1  0
 15 31  1  0
 15 32  1  0
 19 33  1  0
 19 34  1  0
 19 35  1  0
A    1
-0.136904
A    2
-0.233325
A    3
-0.075381
A    4
0.410989
A    5
-0.440057
A    6
-0.157078
A    7
-0.083268
A    8
-0.086269
A    9
-0.061755
A   10
0.166136
A   11
-0.377963
A   12
-0.345027
A   13
-0.159322
A   14
0.173539
A   15
-0.390342
A   16
0.550536
A   17
-0.536878
A   18
-0.227558
A   19
-0.124934
A   20
0.076047
A   21
0.097935
A   22
0.086948
A   23
0.078129
A   24
0.103842
A   25
0.266529
A   26
0.128162
A   27
0.139822
A   28
0.127792
A   29
0.311898
A   30
0.135823
A   31
0.129248
A   32
0.129095
A   33
0.102708
A   34
0.105846
A   35
0.115036
M  END
$$$$
