
     RDKit          3D

 41 43  0  0  0  0  0  0  0  0999 V2000
    1.0268   -6.4354   -1.7195 N   0  0  0  0  0  0  0  0  0  0  0  0
    0.9007   -5.2417   -1.0540 C   0  0  0  0  0  0  0  0  0  0  0  0
    2.0145   -4.5225   -0.8205 N   0  0  0  0  0  0  0  0  0  0  0  0
    1.8730   -3.2657   -0.2500 C   0  0  0  0  0  0  0  0  0  0  0  0
    3.0462   -2.6003   -0.0751 N   0  0  0  0  0  0  0  0  0  0  0  0
    0.6232   -2.7383    0.1135 C   0  0  0  0  0  0  0  0  0  0  0  0
    0.4751   -1.4147    0.7040 C   0  0  0  0  0  0  0  0  0  0  0  0
    1.1210   -1.0413    1.8189 C   0  0  0  0  0  0  0  0  0  0  0  0
    1.0145    0.3312    2.4099 C   0  0  0  0  0  0  0  0  0  0  0  0
   -0.0827    1.1335    1.8050 N   0  0  0  0  0  0  0  0  0  0  0  0
    0.0586    2.5615    2.1911 C   0  0  0  0  0  0  0  0  0  0  0  0
   -1.1777    3.3338    1.8118 C   0  0  0  0  0  0  0  0  0  0  0  0
   -1.0527    4.6282    1.3044 C   0  0  0  0  0  0  0  0  0  0  0  0
   -2.1917    5.3584    0.9719 C   0  0  0  0  0  0  0  0  0  0  0  0
   -3.4564    4.7983    1.1406 C   0  0  0  0  0  0  0  0  0  0  0  0
   -3.5817    3.5056    1.6478 C   0  0  0  0  0  0  0  0  0  0  0  0
   -2.4459    2.7748    1.9849 C   0  0  0  0  0  0  0  0  0  0  0  0
   -0.1076    0.9821    0.3301 C   0  0  0  0  0  0  0  0  0  0  0  0
   -0.4556   -0.4783   -0.0013 C   0  0  0  0  0  0  0  0  0  0  0  0
   -0.5547   -3.5017   -0.1175 C   0  0  0  0  0  0  0  0  0  0  0  0
   -1.7172   -3.2307    0.1182 O   0  0  0  0  0  0  0  0  0  0  0  0
   -0.3670   -4.8030   -0.7147 N   0  0  0  0  0  0  0  0  0  0  0  0
    1.9527   -6.8160   -1.8633 H   0  0  0  0  0  0  0  0  0  0  0  0
    0.2748   -7.1060   -1.7201 H   0  0  0  0  0  0  0  0  0  0  0  0
    3.9185   -2.9911   -0.3837 H   0  0  0  0  0  0  0  0  0  0  0  0
    3.0474   -1.6590    0.2805 H   0  0  0  0  0  0  0  0  0  0  0  0
    1.7649   -1.7189    2.3723 H   0  0  0  0  0  0  0  0  0  0  0  0
    0.7834    0.2512    3.5007 H   0  0  0  0  0  0  0  0  0  0  0  0
    2.0063    0.8365    2.3340 H   0  0  0  0  0  0  0  0  0  0  0  0
    0.9709    3.0310    1.7580 H   0  0  0  0  0  0  0  0  0  0  0  0
    0.1813    2.6109    3.3013 H   0  0  0  0  0  0  0  0  0  0  0  0
   -0.0675    5.0693    1.1641 H   0  0  0  0  0  0  0  0  0  0  0  0
   -2.0915    6.3685    0.5778 H   0  0  0  0  0  0  0  0  0  0  0  0
   -4.3442    5.3685    0.8743 H   0  0  0  0  0  0  0  0  0  0  0  0
   -4.5698    3.0668    1.7806 H   0  0  0  0  0  0  0  0  0  0  0  0
   -2.5360    1.7572    2.3708 H   0  0  0  0  0  0  0  0  0  0  0  0
   -0.8893    1.6580   -0.0814 H   0  0  0  0  0  0  0  0  0  0  0  0
    0.8530    1.2673   -0.1478 H   0  0  0  0  0  0  0  0  0  0  0  0
   -1.4999   -0.7049    0.3144 H   0  0  0  0  0  0  0  0  0  0  0  0
   -0.4371   -0.6349   -1.0963 H   0  0  0  0  0  0  0  0  0  0  0  0
   -1.1969   -5.3694   -0.9046 H   0  0  0  0  0  0  0  0  0  0  0  0
  1  2  1  0
  2  3  2  0
  3  4  1  0
  4  5  1  0
  4  6  2  0
  6  7  1  0
  7  8  2  0
  8  9  1  0
  9 10  1  0
 10 11  1  0
 11 12  1  0
 12 13  2  0
 13 14  1  0
 14 15  2  0
 15 16  1  0
 16 17  2  0
 10 18  1  0
 18 19  1  0
  6 20  1  0
 20 21  2  0
 20 22  1  0
 22  2  1  0
 19  7  1  0
 17 12  1  0
  1 23  1  0
  1 24  1  0
  5 25  1  0
  5 26  1  0
  8 27  1  0
  9 28  1  0
  9 29  1  0
 11 30  1  0
 11 31  1  0
 13 32  1  0
 14 33  1  0
 15 34  1  0
 16 35  1  0
 17 36  1  0
 18 37  1  0
 18 38  1  0
 19 39  1  0
 19 40  1  0
 22 41  1  0
A    1
-0.698283
A    2
0.624896
A    3
-0.629669
A    4
0.470270
A    5
-0.637215
A    6
-0.364556
A    7
0.123818
A    8
-0.205287
A    9
-0.016174
A   10
-0.191489
A   11
-0.075150
A   12
0.086351
A   13
-0.157708
A   14
-0.098487
A   15
-0.112767
A   16
-0.094758
A   17
-0.138450
A   18
-0.022569
A   19
-0.187822
A   20
0.540934
A   21
-0.594917
A   22
-0.479215
A   23
0.357113
A   24
0.355855
A   25
0.341950
A   26
0.319009
A   27
0.103394
A   28
0.072573
A   29
0.045733
A   30
0.051134
A   31
0.079556
A   32
0.102102
A   33
0.100946
A   34
0.099259
A   35
0.100669
A   36
0.103148
A   37
0.066230
A   38
0.039560
A   39
0.093997
A   40
0.088043
A   41
0.337976
M  END
$$$$
