
     RDKit          3D

 35 39  0  0  0  0  0  0  0  0999 V2000
    1.0401   -0.2298   -0.0775 N   0  0  0  0  0  0  0  0  0  0  0  0
   -0.2641    0.3708   -0.0689 C   0  0  0  0  0  0  0  0  0  0  0  0
   -1.1890   -0.6256    0.1574 N   0  0  0  0  0  0  0  0  0  0  0  0
   -2.5491   -0.3761    0.2328 C   0  0  0  0  0  0  0  0  0  0  0  0
   -2.9767    0.9759    0.0478 C   0  0  0  0  0  0  0  0  0  0  0  0
   -2.0271    1.9856   -0.2054 C   0  0  0  0  0  0  0  0  0  0  0  0
   -0.6703    1.6891   -0.2655 C   0  0  0  0  0  0  0  0  0  0  0  0
   -4.3725    1.2506    0.1232 C   0  0  0  0  0  0  0  0  0  0  0  0
   -5.2694    0.2413    0.3667 C   0  0  0  0  0  0  0  0  0  0  0  0
   -4.8242   -1.0926    0.5466 C   0  0  0  0  0  0  0  0  0  0  0  0
   -3.4824   -1.4059    0.4810 C   0  0  0  0  0  0  0  0  0  0  0  0
   -0.5370   -1.9487    0.2793 C   0  0  0  0  0  0  0  0  0  0  0  0
    0.9178   -1.6045    0.0969 C   0  0  0  0  0  0  0  0  0  0  0  0
    2.0053   -2.4517    0.0849 C   0  0  0  0  0  0  0  0  0  0  0  0
    3.2735   -1.9045   -0.1096 C   0  0  0  0  0  0  0  0  0  0  0  0
    3.4274   -0.5143   -0.2589 C   0  0  0  0  0  0  0  0  0  0  0  0
    2.2958    0.3678   -0.2242 C   0  0  0  0  0  0  0  0  0  0  0  0
    2.4914    1.7570   -0.3206 C   0  0  0  0  0  0  0  0  0  0  0  0
    3.7671    2.2672   -0.4823 C   0  0  0  0  0  0  0  0  0  0  0  0
    4.8886    1.4101   -0.5492 C   0  0  0  0  0  0  0  0  0  0  0  0
    4.7241    0.0531   -0.4353 C   0  0  0  0  0  0  0  0  0  0  0  0
   -2.3652    3.0281   -0.3604 H   0  0  0  0  0  0  0  0  0  0  0  0
    0.0533    2.4905   -0.4752 H   0  0  0  0  0  0  0  0  0  0  0  0
   -4.7164    2.2854   -0.0168 H   0  0  0  0  0  0  0  0  0  0  0  0
   -6.3491    0.4529    0.4262 H   0  0  0  0  0  0  0  0  0  0  0  0
   -5.5686   -1.8826    0.7417 H   0  0  0  0  0  0  0  0  0  0  0  0
   -3.1576   -2.4385    0.6230 H   0  0  0  0  0  0  0  0  0  0  0  0
   -0.7457   -2.4221    1.2812 H   0  0  0  0  0  0  0  0  0  0  0  0
   -0.9162   -2.6660   -0.5033 H   0  0  0  0  0  0  0  0  0  0  0  0
    1.8764   -3.5379    0.2227 H   0  0  0  0  0  0  0  0  0  0  0  0
    4.1602   -2.5662   -0.1408 H   0  0  0  0  0  0  0  0  0  0  0  0
    1.6572    2.4579   -0.2548 H   0  0  0  0  0  0  0  0  0  0  0  0
    3.9180    3.3573   -0.5566 H   0  0  0  0  0  0  0  0  0  0  0  0
    5.8906    1.8470   -0.6866 H   0  0  0  0  0  0  0  0  0  0  0  0
    5.5937   -0.6205   -0.4744 H   0  0  0  0  0  0  0  0  0  0  0  0
  1  2  1  0
  2  3  1  0
  3  4  2  0
  4  5  1  0
  5  6  2  0
  6  7  1  0
  5  8  1  0
  8  9  2  0
  9 10  1  0
 10 11  2  0
  3 12  1  0
 12 13  1  0
 13 14  2  0
 14 15  1  0
 15 16  2  0
 16 17  1  0
 17 18  1  0
 18 19  2  0
 19 20  1  0
 20 21  2  0
 17  1  2  0
 13  1  1  0
  7  2  2  0
 11  4  1  0
 21 16  1  0
  6 22  1  0
  7 23  1  0
  8 24  1  0
  9 25  1  0
 10 26  1  0
 11 27  1  0
 12 28  1  0
 12 29  1  0
 14 30  1  0
 15 31  1  0
 18 32  1  0
 19 33  1  0
 20 34  1  0
 21 35  1  0
M  CHG  2   1   1   3   1
A    1
-0.036930
A    2
0.301675
A    3
-0.003662
A    4
0.179934
A    5
0.026063
A    6
0.032029
A    7
-0.196927
A    8
-0.088062
A    9
-0.060124
A   10
0.010970
A   11
-0.183584
A   12
-0.121297
A   13
0.249084
A   14
-0.171144
A   15
0.036761
A   16
0.020552
A   17
0.182735
A   18
-0.182127
A   19
0.011758
A   20
-0.060447
A   21
-0.079958
A   22
0.157887
A   23
0.169102
A   24
0.141348
A   25
0.140736
A   26
0.135974
A   27
0.143748
A   28
0.173796
A   29
0.174051
A   30
0.179817
A   31
0.159272
A   32
0.132804
A   33
0.140464
A   34
0.141610
A   35
0.142091
M  END
$$$$
