
     RDKit          3D

 44 46  0  0  0  0  0  0  0  0999 V2000
   -1.3559   -1.2064    3.5634 C   0  0  0  0  0  0  0  0  0  0  0  0
   -0.1005   -0.6003    2.9600 C   0  0  0  0  0  0  0  0  0  0  0  0
   -0.0810   -1.1085    1.6139 O   0  0  0  0  0  0  0  0  0  0  0  0
    0.7972   -0.5280    0.7661 C   0  0  0  0  0  0  0  0  0  0  0  0
    1.5510    0.3501    1.1309 O   0  0  0  0  0  0  0  0  0  0  0  0
    0.6872   -1.0650   -0.5822 C   0  0  0  0  0  0  0  0  0  0  0  0
    0.3808   -2.3608   -0.8785 C   0  0  0  0  0  0  0  0  0  0  0  0
    0.1069   -3.4163    0.1308 C   0  0  0  0  0  0  0  0  0  0  0  0
    0.3070   -2.8123   -2.1970 N   0  0  0  0  0  0  0  0  0  0  0  0
    0.5657   -1.9559   -3.1594 C   0  0  0  0  0  0  0  0  0  0  0  0
    0.5452   -2.3518   -4.8947 S   0  0  0  0  0  0  0  0  0  0  0  0
    1.0027   -0.7089   -5.2927 C   0  0  0  0  0  0  0  0  0  0  0  0
    1.1587    0.0721   -4.1914 C   0  0  0  0  0  0  0  0  0  0  0  0
    1.5356    1.4980   -4.1518 C   0  0  0  0  0  0  0  0  0  0  0  0
    0.9282   -0.6284   -2.9874 N   0  0  0  0  0  0  0  0  0  0  0  0
    0.9007   -0.0077   -1.6423 C   0  0  0  0  0  0  0  0  0  0  0  0
   -0.2231    1.0010   -1.5431 C   0  0  0  0  0  0  0  0  0  0  0  0
   -1.5168    0.6585   -1.9320 C   0  0  0  0  0  0  0  0  0  0  0  0
   -2.5579    1.5741   -1.8117 C   0  0  0  0  0  0  0  0  0  0  0  0
   -2.2787    2.8339   -1.2830 C   0  0  0  0  0  0  0  0  0  0  0  0
   -3.1856    3.8304   -1.1098 O   0  0  0  0  0  0  0  0  0  0  0  0
   -4.5305    3.5650   -1.4892 C   0  0  0  0  0  0  0  0  0  0  0  0
   -0.9849    3.1912   -0.8688 C   0  0  0  0  0  0  0  0  0  0  0  0
    0.0376    2.2649   -1.0030 C   0  0  0  0  0  0  0  0  0  0  0  0
   -2.2524   -0.9171    2.9982 H   0  0  0  0  0  0  0  0  0  0  0  0
   -1.3155   -2.3032    3.5631 H   0  0  0  0  0  0  0  0  0  0  0  0
   -1.4920   -0.8746    4.5999 H   0  0  0  0  0  0  0  0  0  0  0  0
    0.8261   -0.9341    3.4575 H   0  0  0  0  0  0  0  0  0  0  0  0
   -0.1301    0.5040    2.9343 H   0  0  0  0  0  0  0  0  0  0  0  0
    0.3372   -4.4282   -0.2409 H   0  0  0  0  0  0  0  0  0  0  0  0
   -0.9630   -3.4124    0.4086 H   0  0  0  0  0  0  0  0  0  0  0  0
    0.6722   -3.2643    1.0645 H   0  0  0  0  0  0  0  0  0  0  0  0
    1.1326   -0.4031   -6.3169 H   0  0  0  0  0  0  0  0  0  0  0  0
    0.7538    2.1220   -3.6786 H   0  0  0  0  0  0  0  0  0  0  0  0
    2.4664    1.6705   -3.5823 H   0  0  0  0  0  0  0  0  0  0  0  0
    1.6985    1.9127   -5.1603 H   0  0  0  0  0  0  0  0  0  0  0  0
    1.9041    0.4913   -1.4837 H   0  0  0  0  0  0  0  0  0  0  0  0
   -1.7217   -0.3370   -2.3299 H   0  0  0  0  0  0  0  0  0  0  0  0
   -3.5610    1.2972   -2.1232 H   0  0  0  0  0  0  0  0  0  0  0  0
   -4.9493    2.7410   -0.9019 H   0  0  0  0  0  0  0  0  0  0  0  0
   -5.0351    4.5095   -1.2429 H   0  0  0  0  0  0  0  0  0  0  0  0
   -4.6009    3.3619   -2.5627 H   0  0  0  0  0  0  0  0  0  0  0  0
   -0.8016    4.1776   -0.4491 H   0  0  0  0  0  0  0  0  0  0  0  0
    1.0488    2.5192   -0.6710 H   0  0  0  0  0  0  0  0  0  0  0  0
  1  2  1  0
  2  3  1  0
  3  4  1  0
  4  5  2  0
  4  6  1  0
  6  7  2  0
  7  8  1  0
  7  9  1  0
  9 10  2  0
 10 11  1  0
 11 12  1  0
 12 13  2  0
 13 14  1  0
 13 15  1  0
 15 16  1  0
 16 17  1  0
 17 18  2  0
 18 19  1  0
 19 20  2  0
 20 21  1  0
 21 22  1  0
 20 23  1  0
 23 24  2  0
 16  6  1  0
 24 17  1  0
 15 10  1  0
  1 25  1  0
  1 26  1  0
  1 27  1  0
  2 28  1  0
  2 29  1  0
  8 30  1  0
  8 31  1  0
  8 32  1  0
 12 33  1  0
 14 34  1  0
 14 35  1  0
 14 36  1  0
 16 37  1  0
 18 38  1  0
 19 39  1  0
 22 40  1  0
 22 41  1  0
 22 42  1  0
 23 43  1  0
 24 44  1  0
A    1
-0.363099
A    2
0.119346
A    3
-0.273198
A    4
0.581827
A    5
-0.564464
A    6
-0.302944
A    7
0.330030
A    8
-0.396612
A    9
-0.526857
A   10
0.293993
A   11
0.065737
A   12
-0.326201
A   13
0.240814
A   14
-0.384104
A   15
-0.140349
A   16
0.120578
A   17
0.001925
A   18
-0.091870
A   19
-0.239021
A   20
0.262841
A   21
-0.217935
A   22
-0.133105
A   23
-0.213763
A   24
-0.107548
A   25
0.114356
A   26
0.113685
A   27
0.112228
A   28
0.062054
A   29
0.064921
A   30
0.124207
A   31
0.130768
A   32
0.123332
A   33
0.174701
A   34
0.127676
A   35
0.136974
A   36
0.141877
A   37
0.066098
A   38
0.110033
A   39
0.118361
A   40
0.096611
A   41
0.110181
A   42
0.095146
A   43
0.128260
A   44
0.112508
M  END
$$$$
