
     RDKit          3D

 31 32  0  0  0  0  0  0  0  0999 V2000
   -5.3198    2.4293    0.8442 Cl  0  0  0  0  0  0  0  0  0  0  0  0
   -3.8204    1.6296    1.0442 C   0  0  0  0  0  0  0  0  0  0  0  0
   -3.0880    1.3181   -0.0907 C   0  0  0  0  0  0  0  0  0  0  0  0
   -1.8573    0.6680    0.0874 C   0  0  0  0  0  0  0  0  0  0  0  0
   -1.0297    0.4897   -1.0712 N   0  0  0  0  0  0  0  0  0  0  0  0
   -0.2271   -0.6496   -1.0728 N   0  0  0  0  0  0  0  0  0  0  0  0
   -0.6833   -1.9769   -0.9799 C   0  0  0  0  0  0  0  0  0  0  0  0
   -2.1871   -2.5437   -1.3411 S   0  0  0  0  0  0  0  0  0  0  0  0
    0.4376   -2.7208   -0.6043 N   0  0  0  0  0  0  0  0  0  0  0  0
    1.5324   -1.8707   -0.3666 C   0  0  0  0  0  0  0  0  0  0  0  0
    1.1127   -0.5768   -0.6137 C   0  0  0  0  0  0  0  0  0  0  0  0
    1.8552    0.6814   -0.5315 C   0  0  0  0  0  0  0  0  0  0  0  0
    1.8897    1.5892   -1.3140 O   0  0  0  0  0  0  0  0  0  0  0  0
    2.5809    0.6724    0.6257 O   0  0  0  0  0  0  0  0  0  0  0  0
    3.3392    1.8507    0.8793 C   0  0  0  0  0  0  0  0  0  0  0  0
    2.8433   -2.3864    0.0476 C   0  0  0  0  0  0  0  0  0  0  0  0
   -1.4025    0.3408    1.3715 C   0  0  0  0  0  0  0  0  0  0  0  0
   -2.1773    0.6632    2.4820 C   0  0  0  0  0  0  0  0  0  0  0  0
   -3.4005    1.3158    2.3302 C   0  0  0  0  0  0  0  0  0  0  0  0
   -3.4555    1.5637   -1.0866 H   0  0  0  0  0  0  0  0  0  0  0  0
   -1.5540    0.5122   -1.9692 H   0  0  0  0  0  0  0  0  0  0  0  0
    0.4519   -3.7206   -0.5067 H   0  0  0  0  0  0  0  0  0  0  0  0
    2.6733    2.7188    0.9491 H   0  0  0  0  0  0  0  0  0  0  0  0
    3.8136    1.6346    1.8432 H   0  0  0  0  0  0  0  0  0  0  0  0
    4.0827    2.0018    0.0899 H   0  0  0  0  0  0  0  0  0  0  0  0
    3.3829   -2.8652   -0.7884 H   0  0  0  0  0  0  0  0  0  0  0  0
    3.4971   -1.5760    0.4245 H   0  0  0  0  0  0  0  0  0  0  0  0
    2.7705   -3.1276    0.8606 H   0  0  0  0  0  0  0  0  0  0  0  0
   -0.4444   -0.1577    1.5088 H   0  0  0  0  0  0  0  0  0  0  0  0
   -1.8233    0.4028    3.4801 H   0  0  0  0  0  0  0  0  0  0  0  0
   -4.0051    1.5658    3.2002 H   0  0  0  0  0  0  0  0  0  0  0  0
  1  2  1  0
  2  3  2  0
  3  4  1  0
  4  5  1  0
  5  6  1  0
  6  7  1  0
  7  8  2  0
  7  9  1  0
  9 10  1  0
 10 11  2  0
 11 12  1  0
 12 13  2  0
 12 14  1  0
 14 15  1  0
 10 16  1  0
  4 17  2  0
 17 18  1  0
 18 19  2  0
 19  2  1  0
 11  6  1  0
  3 20  1  0
  5 21  1  0
  9 22  1  0
 15 23  1  0
 15 24  1  0
 15 25  1  0
 16 26  1  0
 16 27  1  0
 16 28  1  0
 17 29  1  0
 18 30  1  0
 19 31  1  0
A    1
-0.137063
A    2
0.182586
A    3
-0.261871
A    4
0.222167
A    5
-0.283739
A    6
0.048718
A    7
0.304285
A    8
-0.549900
A    9
-0.323787
A   10
0.240544
A   11
-0.159445
A   12
0.578214
A   13
-0.508303
A   14
-0.256495
A   15
-0.123015
A   16
-0.395060
A   17
-0.199891
A   18
-0.042097
A   19
-0.199667
A   20
0.144403
A   21
0.277907
A   22
0.342958
A   23
0.107301
A   24
0.111971
A   25
0.104360
A   26
0.139949
A   27
0.141782
A   28
0.141868
A   29
0.110855
A   30
0.111130
A   31
0.129338
M  END
$$$$
