
     RDKit          3D

 48 52  0  0  0  0  0  0  0  0999 V2000
    3.5767   -0.3822   -1.0350 C   0  0  0  0  0  0  0  0  0  0  0  0
    3.2225   -1.8029   -1.4556 C   0  0  0  0  0  0  0  0  0  0  0  0
    4.3711   -2.6439   -1.3529 O   0  0  0  0  0  0  0  0  0  0  0  0
    2.1934   -2.4824   -0.5373 C   0  0  0  0  0  0  0  0  0  0  0  0
    0.7814   -1.9143   -0.7475 C   0  0  2  0  0  0  0  0  0  0  0  0
    0.4784   -0.7765    0.2490 C   0  0  0  0  0  0  0  0  0  0  0  0
   -1.0129   -0.3894    0.2508 C   0  0  2  0  0  0  0  0  0  0  0  0
   -1.9045   -1.5595    0.5050 N   0  0  0  0  0  0  0  0  0  0  0  0
   -1.6639   -2.3217    1.7360 C   0  0  0  0  0  0  0  0  0  0  0  0
   -1.3274   -3.6657    1.4623 O   0  0  0  0  0  0  0  0  0  0  0  0
   -0.2022   -3.8469    0.6221 C   0  0  0  0  0  0  0  0  0  0  0  0
   -0.2972   -3.0220   -0.6753 C   0  0  1  0  0  0  0  0  0  0  0  0
   -1.7113   -2.3793   -0.7243 C   0  0  2  0  0  0  0  0  0  0  0  0
   -1.8494   -1.3229   -1.8557 C   0  0  0  0  0  0  0  0  0  0  0  0
   -1.5301    0.0263   -1.1678 C   0  0  2  0  0  0  0  0  0  0  0  0
   -0.5576    0.8956   -1.9838 C   0  0  0  0  0  0  0  0  0  0  0  0
    0.5523    0.6485   -2.3879 O   0  0  0  0  0  0  0  0  0  0  0  0
   -1.1724    2.1289   -2.2528 N   0  0  0  0  0  0  0  0  0  0  0  0
   -2.4710    2.1561   -1.7086 C   0  0  0  0  0  0  0  0  0  0  0  0
   -3.4085    3.1751   -1.7557 C   0  0  0  0  0  0  0  0  0  0  0  0
   -4.6353    2.9458   -1.1208 C   0  0  0  0  0  0  0  0  0  0  0  0
   -4.9013    1.7451   -0.4698 C   0  0  0  0  0  0  0  0  0  0  0  0
   -3.9458    0.7183   -0.4305 C   0  0  0  0  0  0  0  0  0  0  0  0
   -2.7340    0.9249   -1.0520 C   0  0  0  0  0  0  0  0  0  0  0  0
    4.4281    0.0084   -1.6040 H   0  0  0  0  0  0  0  0  0  0  0  0
    2.7331    0.3008   -1.2149 H   0  0  0  0  0  0  0  0  0  0  0  0
    3.8336   -0.3242    0.0288 H   0  0  0  0  0  0  0  0  0  0  0  0
    2.9047   -1.8435   -2.5235 H   0  0  0  0  0  0  0  0  0  0  0  0
    5.1761   -2.1818   -1.6529 H   0  0  0  0  0  0  0  0  0  0  0  0
    2.5152   -2.3908    0.5158 H   0  0  0  0  0  0  0  0  0  0  0  0
    2.2110   -3.5715   -0.7506 H   0  0  0  0  0  0  0  0  0  0  0  0
    0.7394   -1.4838   -1.7839 H   0  0  0  0  0  0  0  0  0  0  0  0
    1.0992    0.1073    0.0063 H   0  0  0  0  0  0  0  0  0  0  0  0
    0.7793   -1.0723    1.2716 H   0  0  0  0  0  0  0  0  0  0  0  0
   -1.2159    0.4019    1.0056 H   0  0  0  0  0  0  0  0  0  0  0  0
   -2.6356   -2.4352    2.2714 H   0  0  0  0  0  0  0  0  0  0  0  0
   -0.8990   -1.8676    2.3957 H   0  0  0  0  0  0  0  0  0  0  0  0
   -0.2378   -4.9348    0.4244 H   0  0  0  0  0  0  0  0  0  0  0  0
    0.7032   -3.6149    1.2095 H   0  0  0  0  0  0  0  0  0  0  0  0
   -0.1692   -3.6960   -1.5521 H   0  0  0  0  0  0  0  0  0  0  0  0
   -2.4979   -3.1613   -0.7829 H   0  0  0  0  0  0  0  0  0  0  0  0
   -2.8738   -1.3239   -2.2662 H   0  0  0  0  0  0  0  0  0  0  0  0
   -1.1751   -1.5333   -2.7013 H   0  0  0  0  0  0  0  0  0  0  0  0
   -0.7654    2.8788   -2.7855 H   0  0  0  0  0  0  0  0  0  0  0  0
   -3.2071    4.1140   -2.2620 H   0  0  0  0  0  0  0  0  0  0  0  0
   -5.3942    3.7292   -1.1396 H   0  0  0  0  0  0  0  0  0  0  0  0
   -5.8623    1.5954    0.0179 H   0  0  0  0  0  0  0  0  0  0  0  0
   -4.1497   -0.2226    0.0852 H   0  0  0  0  0  0  0  0  0  0  0  0
  1  2  1  0
  2  3  1  0
  2  4  1  0
  4  5  1  0
  5  6  1  0
  6  7  1  0
  7  8  1  0
  8  9  1  0
  9 10  1  0
 10 11  1  0
 11 12  1  0
 12 13  1  0
 13 14  1  0
 14 15  1  0
 15 16  1  6
 16 17  2  0
 16 18  1  0
 18 19  1  0
 19 20  2  0
 20 21  1  0
 21 22  2  0
 22 23  1  0
 23 24  2  0
 12  5  1  0
 24 15  1  0
 15  7  1  0
 24 19  1  0
 13  8  1  0
  1 25  1  0
  1 26  1  0
  1 27  1  0
  2 28  1  0
  3 29  1  0
  4 30  1  0
  4 31  1  0
  5 32  1  6
  6 33  1  0
  6 34  1  0
  7 35  1  1
  9 36  1  0
  9 37  1  0
 11 38  1  0
 11 39  1  0
 12 40  1  6
 13 41  1  6
 14 42  1  0
 14 43  1  0
 18 44  1  0
 20 45  1  0
 21 46  1  0
 22 47  1  0
 23 48  1  0
A    1
-0.416154
A    2
0.310190
A    3
-0.600879
A    4
-0.221593
A    5
0.007655
A    6
-0.224916
A    7
0.093255
A    8
-0.275472
A    9
0.157064
A   10
-0.317193
A   11
0.048679
A   12
-0.105330
A   13
0.105401
A   14
-0.198183
A   15
-0.027644
A   16
0.531333
A   17
-0.521258
A   18
-0.417263
A   19
0.188399
A   20
-0.208954
A   21
-0.088369
A   22
-0.135825
A   23
-0.113979
A   24
-0.041556
A   25
0.109707
A   26
0.124343
A   27
0.114532
A   28
0.017263
A   29
0.373273
A   30
0.078202
A   31
0.085752
A   32
0.050612
A   33
0.087982
A   34
0.075820
A   35
0.061297
A   36
0.050441
A   37
0.045967
A   38
0.068603
A   39
0.050748
A   40
0.066667
A   41
0.057009
A   42
0.097858
A   43
0.098741
A   44
0.330100
A   45
0.119578
A   46
0.100629
A   47
0.102913
A   48
0.104555
M  END
$$$$
