
     RDKit          3D

 47 50  0  0  0  0  0  0  0  0999 V2000
   -0.9448   -4.9930    3.5993 C   0  0  0  0  0  0  0  0  0  0  0  0
   -1.1075   -3.9551    2.6344 O   0  0  0  0  0  0  0  0  0  0  0  0
    0.0051   -3.2798    2.2771 C   0  0  0  0  0  0  0  0  0  0  0  0
    1.0964   -3.5173    2.7291 O   0  0  0  0  0  0  0  0  0  0  0  0
   -0.3491   -2.2301    1.2355 C   0  0  0  0  0  0  0  0  0  0  0  0
    0.2921   -2.6210   -0.1093 C   0  0  0  0  0  0  0  0  0  0  0  0
    0.1252   -1.4945   -1.0698 C   0  0  0  0  0  0  0  0  0  0  0  0
   -0.1210   -0.2271   -0.6692 C   0  0  0  0  0  0  0  0  0  0  0  0
   -0.1461    0.1711    0.8001 C   0  0  0  0  0  0  0  0  0  0  0  0
    0.8700    1.2608    1.0702 C   0  0  0  0  0  0  0  0  0  0  0  0
    2.1521    1.1736    0.5242 C   0  0  0  0  0  0  0  0  0  0  0  0
    3.0895    2.1676    0.7907 C   0  0  0  0  0  0  0  0  0  0  0  0
    2.7490    3.2453    1.6070 C   0  0  0  0  0  0  0  0  0  0  0  0
    1.4713    3.3275    2.1577 C   0  0  0  0  0  0  0  0  0  0  0  0
    0.5301    2.3350    1.8922 C   0  0  0  0  0  0  0  0  0  0  0  0
    0.1603   -0.9413    1.7399 N   0  0  0  0  0  0  0  0  0  0  0  0
   -0.4210    0.7558   -1.6458 N   0  0  0  0  0  0  0  0  0  0  0  0
   -0.8251    2.0957   -1.2052 C   0  0  0  0  0  0  0  0  0  0  0  0
    0.3220    0.6575   -2.8457 C   0  0  0  0  0  0  0  0  0  0  0  0
    0.6894    1.7802   -3.5986 C   0  0  0  0  0  0  0  0  0  0  0  0
    1.3580    1.6135   -4.8087 C   0  0  0  0  0  0  0  0  0  0  0  0
    1.6808    0.3415   -5.2698 C   0  0  0  0  0  0  0  0  0  0  0  0
    1.3274   -0.7796   -4.5183 C   0  0  0  0  0  0  0  0  0  0  0  0
    0.6467   -0.6356   -3.3166 C   0  0  0  0  0  0  0  0  0  0  0  0
    0.2316   -1.8345   -2.5214 C   0  0  0  0  0  0  0  0  0  0  0  0
   -0.5345   -4.5863    4.5300 H   0  0  0  0  0  0  0  0  0  0  0  0
   -0.2953   -5.7790    3.2003 H   0  0  0  0  0  0  0  0  0  0  0  0
   -1.9686   -5.3588    3.7455 H   0  0  0  0  0  0  0  0  0  0  0  0
   -1.4667   -2.1491    1.1222 H   0  0  0  0  0  0  0  0  0  0  0  0
   -0.1702   -3.5510   -0.5037 H   0  0  0  0  0  0  0  0  0  0  0  0
    1.3714   -2.8624    0.0189 H   0  0  0  0  0  0  0  0  0  0  0  0
   -1.1912    0.5127    1.0601 H   0  0  0  0  0  0  0  0  0  0  0  0
    2.4164    0.3323   -0.1180 H   0  0  0  0  0  0  0  0  0  0  0  0
    4.0897    2.1014    0.3620 H   0  0  0  0  0  0  0  0  0  0  0  0
    3.4831    4.0222    1.8171 H   0  0  0  0  0  0  0  0  0  0  0  0
    1.2080    4.1673    2.7994 H   0  0  0  0  0  0  0  0  0  0  0  0
   -0.4668    2.3979    2.3290 H   0  0  0  0  0  0  0  0  0  0  0  0
    1.1720   -1.0015    1.9189 H   0  0  0  0  0  0  0  0  0  0  0  0
   -1.3398    2.6153   -2.0362 H   0  0  0  0  0  0  0  0  0  0  0  0
    0.0189    2.7224   -0.8682 H   0  0  0  0  0  0  0  0  0  0  0  0
   -1.5572    2.0222   -0.3813 H   0  0  0  0  0  0  0  0  0  0  0  0
    0.4696    2.7854   -3.2474 H   0  0  0  0  0  0  0  0  0  0  0  0
    1.6341    2.4913   -5.3941 H   0  0  0  0  0  0  0  0  0  0  0  0
    2.2090    0.2191   -6.2122 H   0  0  0  0  0  0  0  0  0  0  0  0
    1.5857   -1.7757   -4.8802 H   0  0  0  0  0  0  0  0  0  0  0  0
    0.9346   -2.6824   -2.6794 H   0  0  0  0  0  0  0  0  0  0  0  0
   -0.7535   -2.2040   -2.8956 H   0  0  0  0  0  0  0  0  0  0  0  0
  1  2  1  0
  2  3  1  0
  3  4  2  0
  3  5  1  0
  5  6  1  0
  6  7  1  0
  7  8  2  0
  8  9  1  0
  9 10  1  0
 10 11  2  0
 11 12  1  0
 12 13  2  0
 13 14  1  0
 14 15  2  0
  9 16  1  0
  8 17  1  0
 17 18  1  0
 17 19  1  0
 19 20  2  0
 20 21  1  0
 21 22  2  0
 22 23  1  0
 23 24  2  0
 24 25  1  0
 16  5  1  0
 24 19  1  0
 25  7  1  0
 15 10  1  0
  1 26  1  0
  1 27  1  0
  1 28  1  0
  5 29  1  0
  6 30  1  0
  6 31  1  0
  9 32  1  0
 11 33  1  0
 12 34  1  0
 13 35  1  0
 14 36  1  0
 15 37  1  0
 16 38  1  0
 18 39  1  0
 18 40  1  0
 18 41  1  0
 20 42  1  0
 21 43  1  0
 22 44  1  0
 23 45  1  0
 25 46  1  0
 25 47  1  0
A    1
-0.127029
A    2
-0.255288
A    3
0.575145
A    4
-0.525063
A    5
0.017574
A    6
-0.202327
A    7
-0.024739
A    8
0.024266
A    9
0.075730
A   10
0.061794
A   11
-0.130000
A   12
-0.093759
A   13
-0.104688
A   14
-0.093998
A   15
-0.144037
A   16
-0.455171
A   17
-0.107368
A   18
-0.217802
A   19
0.131975
A   20
-0.204410
A   21
-0.093162
A   22
-0.136803
A   23
-0.143808
A   24
0.020411
A   25
-0.171662
A   26
0.105811
A   27
0.104785
A   28
0.111113
A   29
0.084846
A   30
0.097482
A   31
0.090061
A   32
0.059779
A   33
0.101091
A   34
0.106397
A   35
0.102354
A   36
0.103766
A   37
0.109757
A   38
0.246631
A   39
0.109012
A   40
0.089461
A   41
0.110228
A   42
0.111881
A   43
0.100502
A   44
0.100282
A   45
0.103674
A   46
0.093109
A   47
0.082202
M  END
$$$$
