
     RDKit          3D

 46 47  0  0  0  0  0  0  0  0999 V2000
    1.4616   -3.6931   -1.9250 C   0  0  0  0  0  0  0  0  0  0  0  0
    1.2788   -2.2891   -1.3404 C   0  0  2  0  0  0  0  0  0  0  0  0
    1.2285   -2.3548    0.1935 C   0  0  0  0  0  0  0  0  0  0  0  0
    1.0287   -0.9407    0.7608 C   0  0  2  0  0  0  0  0  0  0  0  0
    1.1230   -0.9605    2.2527 C   0  0  0  0  0  0  0  0  0  0  0  0
    0.3905   -0.1724    3.0413 C   0  0  0  0  0  0  0  0  0  0  0  0
   -0.6499    0.7760    2.5323 C   0  0  2  0  0  0  0  0  0  0  0  0
   -2.0279    0.2393    2.9475 C   0  0  0  0  0  0  0  0  0  0  0  0
   -0.5241    0.9958    0.9938 C   0  0  2  0  0  0  0  0  0  0  0  0
   -1.7454    1.7354    0.5569 C   0  0  0  0  0  0  0  0  0  0  0  0
   -1.7547    3.0650    0.3585 C   0  0  0  0  0  0  0  0  0  0  0  0
   -2.9602    3.7613   -0.0416 C   0  0  0  0  0  0  0  0  0  0  0  0
   -2.9873    5.0827   -0.2994 C   0  0  0  0  0  0  0  0  0  0  0  0
   -4.2319    5.7257   -0.7031 C   0  0  0  0  0  0  0  0  0  0  0  0
   -5.3202    5.2108   -0.8191 O   0  0  0  0  0  0  0  0  0  0  0  0
   -4.1783    7.0588   -0.9852 O   0  0  0  0  0  0  0  0  0  0  0  0
   -0.3207   -0.3526    0.2661 C   0  0  1  0  0  0  0  0  0  0  0  0
   -0.2508   -0.2499   -1.2772 C   0  0  2  0  0  0  0  0  0  0  0  0
   -1.5258    0.3118   -1.9143 C   0  0  0  0  0  0  0  0  0  0  0  0
   -0.0180   -1.6582   -1.8670 C   0  0  0  0  0  0  0  0  0  0  0  0
    1.4998   -3.6672   -3.0196 H   0  0  0  0  0  0  0  0  0  0  0  0
    2.3920   -4.1526   -1.5731 H   0  0  0  0  0  0  0  0  0  0  0  0
    0.6388   -4.3586   -1.6406 H   0  0  0  0  0  0  0  0  0  0  0  0
    2.1438   -1.6537   -1.6488 H   0  0  0  0  0  0  0  0  0  0  0  0
    0.4094   -3.0182    0.5253 H   0  0  0  0  0  0  0  0  0  0  0  0
    2.1602   -2.8010    0.5865 H   0  0  0  0  0  0  0  0  0  0  0  0
    1.8568   -0.2841    0.3797 H   0  0  0  0  0  0  0  0  0  0  0  0
    1.8608   -1.6506    2.6602 H   0  0  0  0  0  0  0  0  0  0  0  0
    0.4934   -0.1905    4.1256 H   0  0  0  0  0  0  0  0  0  0  0  0
   -0.4992    1.7751    3.0192 H   0  0  0  0  0  0  0  0  0  0  0  0
   -2.2945   -0.6632    2.3858 H   0  0  0  0  0  0  0  0  0  0  0  0
   -2.0434   -0.0251    4.0123 H   0  0  0  0  0  0  0  0  0  0  0  0
   -2.8177    0.9820    2.7894 H   0  0  0  0  0  0  0  0  0  0  0  0
    0.3903    1.6178    0.8135 H   0  0  0  0  0  0  0  0  0  0  0  0
   -2.6452    1.1245    0.4357 H   0  0  0  0  0  0  0  0  0  0  0  0
   -0.8541    3.6679    0.4862 H   0  0  0  0  0  0  0  0  0  0  0  0
   -3.8746    3.1542   -0.1335 H   0  0  0  0  0  0  0  0  0  0  0  0
   -2.1027    5.7123   -0.2193 H   0  0  0  0  0  0  0  0  0  0  0  0
   -3.2872    7.4756   -0.8923 H   0  0  0  0  0  0  0  0  0  0  0  0
   -1.1488   -1.0429    0.5437 H   0  0  0  0  0  0  0  0  0  0  0  0
    0.6075    0.4079   -1.5516 H   0  0  0  0  0  0  0  0  0  0  0  0
   -2.4265   -0.1372   -1.4823 H   0  0  0  0  0  0  0  0  0  0  0  0
   -1.5516    0.1114   -2.9933 H   0  0  0  0  0  0  0  0  0  0  0  0
   -1.5906    1.4001   -1.8065 H   0  0  0  0  0  0  0  0  0  0  0  0
    0.0176   -1.6004   -2.9706 H   0  0  0  0  0  0  0  0  0  0  0  0
   -0.8791   -2.3086   -1.6249 H   0  0  0  0  0  0  0  0  0  0  0  0
  1  2  1  0
  2  3  1  0
  3  4  1  0
  4  5  1  0
  5  6  2  0
  6  7  1  0
  7  8  1  0
  7  9  1  0
  9 10  1  0
 10 11  2  0
 11 12  1  0
 12 13  2  0
 13 14  1  0
 14 15  2  0
 14 16  1  0
  9 17  1  0
 17 18  1  0
 18 19  1  0
 18 20  1  0
 20  2  1  0
 17  4  1  0
  1 21  1  0
  1 22  1  0
  1 23  1  0
  2 24  1  1
  3 25  1  0
  3 26  1  0
  4 27  1  6
  5 28  1  0
  6 29  1  0
  7 30  1  1
  8 31  1  0
  8 32  1  0
  8 33  1  0
  9 34  1  1
 10 35  1  0
 11 36  1  0
 12 37  1  0
 13 38  1  0
 16 39  1  0
 17 40  1  6
 18 41  1  1
 19 42  1  0
 19 43  1  0
 19 44  1  0
 20 45  1  0
 20 46  1  0
A    1
-0.361944
A    2
0.075354
A    3
-0.190540
A    4
0.012662
A    5
-0.148667
A    6
-0.153242
A    7
0.067118
A    8
-0.361716
A    9
-0.041265
A   10
-0.026801
A   11
-0.159172
A   12
0.032916
A   13
-0.338991
A   14
0.668901
A   15
-0.563272
A   16
-0.558761
A   17
-0.061232
A   18
0.049082
A   19
-0.360148
A   20
-0.190807
A   21
0.099046
A   22
0.099160
A   23
0.102303
A   24
0.044660
A   25
0.077049
A   26
0.074121
A   27
0.056362
A   28
0.090593
A   29
0.094437
A   30
0.056916
A   31
0.106575
A   32
0.112761
A   33
0.102133
A   34
0.065722
A   35
0.097536
A   36
0.114828
A   37
0.108740
A   38
0.132284
A   39
0.415041
A   40
0.061565
A   41
0.047885
A   42
0.103850
A   43
0.101403
A   44
0.098544
A   45
0.070927
A   46
0.076085
M  END
$$$$
