
     RDKit          3D

 24 25  0  0  0  0  0  0  0  0999 V2000
   -0.9646    1.0732   -2.2599 Cl  0  0  0  0  0  0  0  0  0  0  0  0
   -1.8213    0.7883   -0.8249 C   0  0  0  0  0  0  0  0  0  0  0  0
   -1.3160   -0.1003    0.1260 C   0  0  0  0  0  0  0  0  0  0  0  0
   -2.0455   -0.3245    1.2966 C   0  0  0  0  0  0  0  0  0  0  0  0
   -3.2562    0.3301    1.5121 C   0  0  0  0  0  0  0  0  0  0  0  0
   -3.7182    1.2111    0.5410 C   0  0  0  0  0  0  0  0  0  0  0  0
   -5.1984    2.0189    0.8043 Cl  0  0  0  0  0  0  0  0  0  0  0  0
   -3.0251    1.4608   -0.6360 C   0  0  0  0  0  0  0  0  0  0  0  0
   -0.0170   -0.8150   -0.0949 C   0  0  0  0  0  0  0  0  0  0  0  0
    1.0569    0.2324   -0.1116 N   0  0  0  0  0  0  0  0  0  0  0  0
    2.3168   -0.3651   -0.1810 N   0  0  0  0  0  0  0  0  0  0  0  0
    2.9420   -0.6336   -1.4184 C   0  0  0  0  0  0  0  0  0  0  0  0
    2.3159   -0.7842   -2.9287 S   0  0  0  0  0  0  0  0  0  0  0  0
    4.2668   -0.8760   -1.0445 N   0  0  0  0  0  0  0  0  0  0  0  0
    4.4750   -0.7018    0.2989 N   0  0  0  0  0  0  0  0  0  0  0  0
    3.3026   -0.3774    0.8365 C   0  0  0  0  0  0  0  0  0  0  0  0
   -1.6717   -1.0203    2.0487 H   0  0  0  0  0  0  0  0  0  0  0  0
   -3.8245    0.1501    2.4252 H   0  0  0  0  0  0  0  0  0  0  0  0
   -3.4085    2.1566   -1.3859 H   0  0  0  0  0  0  0  0  0  0  0  0
   -0.0122   -1.3312   -1.0923 H   0  0  0  0  0  0  0  0  0  0  0  0
    0.1601   -1.6111    0.6591 H   0  0  0  0  0  0  0  0  0  0  0  0
    1.0027    0.8172    0.7390 H   0  0  0  0  0  0  0  0  0  0  0  0
    5.0638   -1.0647   -1.6330 H   0  0  0  0  0  0  0  0  0  0  0  0
    3.1113   -0.1759    1.8773 H   0  0  0  0  0  0  0  0  0  0  0  0
  1  2  1  0
  2  3  2  0
  3  4  1  0
  4  5  2  0
  5  6  1  0
  6  7  1  0
  6  8  2  0
  3  9  1  0
  9 10  1  0
 10 11  1  0
 11 12  1  0
 12 13  2  0
 12 14  1  0
 14 15  1  0
 15 16  2  0
  8  2  1  0
 16 11  1  0
  4 17  1  0
  5 18  1  0
  8 19  1  0
  9 20  1  0
  9 21  1  0
 10 22  1  0
 14 23  1  0
 16 24  1  0
A    1
-0.098109
A    2
0.128952
A    3
0.016164
A    4
-0.107852
A    5
-0.167351
A    6
0.172548
A    7
-0.124200
A    8
-0.222262
A    9
-0.054036
A   10
-0.279606
A   11
0.056371
A   12
0.284799
A   13
-0.537171
A   14
-0.173786
A   15
-0.256338
A   16
0.055230
A   17
0.118825
A   18
0.132209
A   19
0.147837
A   20
0.089023
A   21
0.080299
A   22
0.256811
A   23
0.332847
A   24
0.148797
M  END
$$$$
