
     RDKit          3D

 33 34  0  0  0  0  0  0  0  0999 V2000
    1.1299   -0.3089    0.4854 P   0  0  0  0  0  0  0  0  0  0  0  0
    1.6309   -0.3558    1.8570 O   0  0  0  0  0  0  0  0  0  0  0  0
    1.7142    0.7998   -0.5002 O   0  0  0  0  0  0  0  0  0  0  0  0
    2.8975    1.5793   -0.1344 C   0  0  0  0  0  0  0  0  0  0  0  0
    3.1035    2.2807   -1.4744 C   0  0  0  0  0  0  0  0  0  0  0  0
   -0.5869    0.0208    0.4053 N   0  0  0  0  0  0  0  0  0  0  0  0
   -1.0026    1.2438    0.7488 N   0  0  0  0  0  0  0  0  0  0  0  0
   -2.2743    1.4820    0.9312 C   0  0  0  0  0  0  0  0  0  0  0  0
   -3.3393    0.4511    0.8716 C   0  0  0  0  0  0  0  0  0  0  0  0
   -4.5099    0.6415    1.0966 O   0  0  0  0  0  0  0  0  0  0  0  0
   -2.8714   -0.8104    0.4518 N   0  0  0  0  0  0  0  0  0  0  0  0
   -3.7831   -1.8910    0.5577 N   0  0  0  0  0  0  0  0  0  0  0  0
   -1.4948   -1.0910    0.2709 C   0  0  0  0  0  0  0  0  0  0  0  0
   -1.1840   -2.3161   -0.0848 N   0  0  0  0  0  0  0  0  0  0  0  0
    0.1247   -2.7589   -0.1008 N   0  0  0  0  0  0  0  0  0  0  0  0
    1.1233   -1.7989   -0.6749 C   0  0  0  0  0  0  0  0  0  0  0  0
    2.4842   -2.5032   -0.8142 C   0  0  0  0  0  0  0  0  0  0  0  0
   -2.7310    2.8638    1.2295 C   0  0  0  0  0  0  0  0  0  0  0  0
    3.7649    0.9434    0.1324 H   0  0  0  0  0  0  0  0  0  0  0  0
    2.6942    2.2877    0.6902 H   0  0  0  0  0  0  0  0  0  0  0  0
    3.0702    1.5606   -2.3060 H   0  0  0  0  0  0  0  0  0  0  0  0
    2.3175    3.0216   -1.6647 H   0  0  0  0  0  0  0  0  0  0  0  0
    4.0747    2.7863   -1.5058 H   0  0  0  0  0  0  0  0  0  0  0  0
   -3.2610   -2.7573    0.7527 H   0  0  0  0  0  0  0  0  0  0  0  0
   -4.2396   -2.0118   -0.3560 H   0  0  0  0  0  0  0  0  0  0  0  0
    0.1121   -3.6440   -0.6562 H   0  0  0  0  0  0  0  0  0  0  0  0
    0.8134   -1.4315   -1.7137 H   0  0  0  0  0  0  0  0  0  0  0  0
    2.3780   -3.3577   -1.5014 H   0  0  0  0  0  0  0  0  0  0  0  0
    3.2517   -1.8496   -1.2595 H   0  0  0  0  0  0  0  0  0  0  0  0
    2.8977   -2.8986    0.1274 H   0  0  0  0  0  0  0  0  0  0  0  0
   -3.3805    3.2471    0.4242 H   0  0  0  0  0  0  0  0  0  0  0  0
   -3.3185    2.9005    2.1627 H   0  0  0  0  0  0  0  0  0  0  0  0
   -1.8912    3.5685    1.3370 H   0  0  0  0  0  0  0  0  0  0  0  0
  1  2  2  0
  1  3  1  0
  3  4  1  0
  4  5  1  0
  1  6  1  0
  6  7  1  0
  7  8  2  0
  8  9  1  0
  9 10  2  0
  9 11  1  0
 11 12  1  0
 11 13  1  0
 13 14  2  0
 14 15  1  0
 15 16  1  0
 16 17  1  0
  8 18  1  0
 16  1  1  0
 13  6  1  0
  4 19  1  0
  4 20  1  0
  5 21  1  0
  5 22  1  0
  5 23  1  0
 12 24  1  0
 12 25  1  0
 15 26  1  0
 16 27  1  0
 17 28  1  0
 17 29  1  0
 17 30  1  0
 18 31  1  0
 18 32  1  0
 18 33  1  0
A    1
1.113354
A    2
-0.696217
A    3
-0.411358
A    4
0.145343
A    5
-0.361544
A    6
-0.232407
A    7
-0.175851
A    8
0.144577
A    9
0.410045
A   10
-0.490366
A   11
-0.021155
A   12
-0.517123
A   13
0.318960
A   14
-0.393534
A   15
-0.235914
A   16
-0.083270
A   17
-0.344741
A   18
-0.387261
A   19
0.071575
A   20
0.075362
A   21
0.119624
A   22
0.120131
A   23
0.109730
A   24
0.292437
A   25
0.291899
A   26
0.259328
A   27
0.091995
A   28
0.125872
A   29
0.125781
A   30
0.127129
A   31
0.136699
A   32
0.137846
A   33
0.133055
M  END
$$$$
