
     RDKit          3D

 45 48  0  0  0  0  0  0  0  0999 V2000
   -3.1516    1.7407    0.6672 O   0  0  0  0  0  0  0  0  0  0  0  0
   -2.8779    1.0144   -0.2560 C   0  0  0  0  0  0  0  0  0  0  0  0
   -3.6508    1.0320   -1.3739 O   0  0  0  0  0  0  0  0  0  0  0  0
   -1.7759    0.0290   -0.4273 C   0  0  0  0  0  0  0  0  0  0  0  0
   -0.7816   -0.0327    0.7551 C   0  0  0  0  0  0  0  0  0  0  0  0
   -0.1686    1.3789    0.9609 C   0  0  0  0  0  0  0  0  0  0  0  0
    0.3181    2.0152   -0.3011 C   0  0  0  0  0  0  0  0  0  0  0  0
    1.5528    1.6655   -0.8558 C   0  0  0  0  0  0  0  0  0  0  0  0
    1.9923    2.2505   -2.0410 C   0  0  0  0  0  0  0  0  0  0  0  0
    1.2054    3.2003   -2.6934 C   0  0  0  0  0  0  0  0  0  0  0  0
   -0.0050    3.5454   -2.1112 C   0  0  0  0  0  0  0  0  0  0  0  0
   -0.9875    4.7192   -2.8904 Cl  0  0  0  0  0  0  0  0  0  0  0  0
   -0.4662    2.9883   -0.9291 C   0  0  0  0  0  0  0  0  0  0  0  0
   -1.4887   -0.4795    2.0653 C   0  0  0  0  0  0  0  0  0  0  0  0
   -2.1160   -1.8776    1.8987 C   0  0  0  0  0  0  0  0  0  0  0  0
   -1.0214   -2.9059    1.5607 C   0  0  0  0  0  0  0  0  0  0  0  0
    0.0028   -2.9582    2.7102 C   0  0  0  0  0  0  0  0  0  0  0  0
    0.6352   -1.5650    2.8865 C   0  0  0  0  0  0  0  0  0  0  0  0
   -0.4728   -0.5505    3.2232 C   0  0  0  0  0  0  0  0  0  0  0  0
    1.3416   -1.1638    1.5785 C   0  0  0  0  0  0  0  0  0  0  0  0
    0.3142   -1.0878    0.4316 C   0  0  0  0  0  0  0  0  0  0  0  0
   -0.3069   -2.4896    0.2627 C   0  0  0  0  0  0  0  0  0  0  0  0
   -4.4053    1.6787   -1.3381 H   0  0  0  0  0  0  0  0  0  0  0  0
   -1.2210    0.2535   -1.3701 H   0  0  0  0  0  0  0  0  0  0  0  0
   -2.2197   -0.9785   -0.6154 H   0  0  0  0  0  0  0  0  0  0  0  0
    0.6622    1.3227    1.6975 H   0  0  0  0  0  0  0  0  0  0  0  0
   -0.9301    2.0247    1.4554 H   0  0  0  0  0  0  0  0  0  0  0  0
    2.1813    0.9275   -0.3563 H   0  0  0  0  0  0  0  0  0  0  0  0
    2.9568    1.9656   -2.4635 H   0  0  0  0  0  0  0  0  0  0  0  0
    1.5403    3.6491   -3.6271 H   0  0  0  0  0  0  0  0  0  0  0  0
   -1.4166    3.2964   -0.4897 H   0  0  0  0  0  0  0  0  0  0  0  0
   -2.2868    0.2551    2.3207 H   0  0  0  0  0  0  0  0  0  0  0  0
   -2.6330   -2.1676    2.8316 H   0  0  0  0  0  0  0  0  0  0  0  0
   -2.8951   -1.8725    1.1179 H   0  0  0  0  0  0  0  0  0  0  0  0
   -1.4812   -3.9106    1.4281 H   0  0  0  0  0  0  0  0  0  0  0  0
   -0.4852   -3.2793    3.6462 H   0  0  0  0  0  0  0  0  0  0  0  0
    0.7819   -3.7094    2.4970 H   0  0  0  0  0  0  0  0  0  0  0  0
    1.3777   -1.5931    3.7146 H   0  0  0  0  0  0  0  0  0  0  0  0
   -0.0401    0.4426    3.4321 H   0  0  0  0  0  0  0  0  0  0  0  0
   -0.9895   -0.8518    4.1531 H   0  0  0  0  0  0  0  0  0  0  0  0
    1.8692   -0.2023    1.7043 H   0  0  0  0  0  0  0  0  0  0  0  0
    2.1249   -1.9025    1.3290 H   0  0  0  0  0  0  0  0  0  0  0  0
    0.8300   -0.8036   -0.5130 H   0  0  0  0  0  0  0  0  0  0  0  0
    0.4848   -3.2195    0.0146 H   0  0  0  0  0  0  0  0  0  0  0  0
   -1.0078   -2.5157   -0.5893 H   0  0  0  0  0  0  0  0  0  0  0  0
  1  2  2  0
  2  3  1  0
  2  4  1  0
  4  5  1  0
  5  6  1  0
  6  7  1  0
  7  8  2  0
  8  9  1  0
  9 10  2  0
 10 11  1  0
 11 12  1  0
 11 13  2  0
  5 14  1  0
 14 15  1  0
 15 16  1  0
 16 17  1  0
 17 18  1  0
 18 19  1  0
 18 20  1  0
 20 21  1  0
 21 22  1  0
 21  5  1  0
 13  7  1  0
 19 14  1  0
 22 16  1  0
  3 23  1  0
  4 24  1  0
  4 25  1  0
  6 26  1  0
  6 27  1  0
  8 28  1  0
  9 29  1  0
 10 30  1  0
 13 31  1  0
 14 32  1  0
 15 33  1  0
 15 34  1  0
 16 35  1  0
 17 36  1  0
 17 37  1  0
 18 38  1  0
 19 39  1  0
 19 40  1  0
 20 41  1  0
 20 42  1  0
 21 43  1  0
 22 44  1  0
 22 45  1  0
A    1
-0.549739
A    2
0.706754
A    3
-0.561426
A    4
-0.347633
A    5
0.120562
A    6
-0.243338
A    7
0.142065
A    8
-0.163295
A    9
-0.069878
A   10
-0.178471
A   11
0.168256
A   12
-0.150106
A   13
-0.222954
A   14
-0.022539
A   15
-0.188131
A   16
0.041448
A   17
-0.193600
A   18
0.048168
A   19
-0.185305
A   20
-0.192532
A   21
-0.012989
A   22
-0.188550
A   23
0.416167
A   24
0.126798
A   25
0.125274
A   26
0.088836
A   27
0.099642
A   28
0.110065
A   29
0.108659
A   30
0.124857
A   31
0.124386
A   32
0.060439
A   33
0.075031
A   34
0.070750
A   35
0.044387
A   36
0.069748
A   37
0.069183
A   38
0.043623
A   39
0.073497
A   40
0.072886
A   41
0.069054
A   42
0.074938
A   43
0.046929
A   44
0.075136
A   45
0.072946
M  END
$$$$
