
     RDKit          3D

 41 42  0  0  0  0  0  0  0  0999 V2000
    2.1210   -4.6860    0.4060 O   0  0  0  0  0  0  0  0  0  0  0  0
    1.1096   -4.0111    0.2766 N   0  0  0  0  0  0  0  0  0  0  0  0
   -0.0170   -4.5356    0.2729 O   0  0  0  0  0  0  0  0  0  0  0  0
    1.2280   -2.6273    0.1352 C   0  0  0  0  0  0  0  0  0  0  0  0
    0.1485   -1.7664   -0.0868 C   0  0  0  0  0  0  0  0  0  0  0  0
    0.3250   -0.4473   -0.4862 N   0  0  0  0  0  0  0  0  0  0  0  0
   -0.7308    0.5098   -0.1328 C   0  0  0  0  0  0  0  0  0  0  0  0
   -2.1205    0.0032   -0.5912 C   0  0  0  0  0  0  0  0  0  0  0  0
   -2.2934    0.6048   -1.8462 O   0  0  0  0  0  0  0  0  0  0  0  0
   -3.5312    0.3653   -2.4928 C   0  0  0  0  0  0  0  0  0  0  0  0
   -3.1355    0.3938    0.2982 O   0  0  0  0  0  0  0  0  0  0  0  0
   -3.3016    1.7874    0.4871 C   0  0  0  0  0  0  0  0  0  0  0  0
   -2.2465   -1.5365   -0.6335 C   0  0  0  0  0  0  0  0  0  0  0  0
   -1.1488   -2.1945    0.0726 N   0  0  0  0  0  0  0  0  0  0  0  0
    1.6804    0.1181   -0.5621 C   0  0  0  0  0  0  0  0  0  0  0  0
    2.3128    0.4155    0.8117 C   0  0  0  0  0  0  0  0  0  0  0  0
    3.8466    0.5305    0.6903 C   0  0  0  0  0  0  0  0  0  0  0  0
    4.1801    1.9095    0.7507 O   0  0  0  0  0  0  0  0  0  0  0  0
    3.1877    2.5860    1.5110 C   0  0  0  0  0  0  0  0  0  0  0  0
    1.8838    1.7813    1.3895 C   0  0  0  0  0  0  0  0  0  0  0  0
    2.2468   -2.2552    0.1947 H   0  0  0  0  0  0  0  0  0  0  0  0
   -0.5180    1.4854   -0.6323 H   0  0  0  0  0  0  0  0  0  0  0  0
   -0.7611    0.6866    0.9689 H   0  0  0  0  0  0  0  0  0  0  0  0
   -3.5859    1.1767   -3.2304 H   0  0  0  0  0  0  0  0  0  0  0  0
   -4.3770    0.4196   -1.8002 H   0  0  0  0  0  0  0  0  0  0  0  0
   -3.4978   -0.6046   -3.0001 H   0  0  0  0  0  0  0  0  0  0  0  0
   -4.3066    1.8593    0.9242 H   0  0  0  0  0  0  0  0  0  0  0  0
   -2.5527    2.1544    1.1956 H   0  0  0  0  0  0  0  0  0  0  0  0
   -3.2548    2.3402   -0.4565 H   0  0  0  0  0  0  0  0  0  0  0  0
   -2.2824   -1.8707   -1.6993 H   0  0  0  0  0  0  0  0  0  0  0  0
   -3.2063   -1.8494   -0.1483 H   0  0  0  0  0  0  0  0  0  0  0  0
   -1.2705   -3.2116    0.2556 H   0  0  0  0  0  0  0  0  0  0  0  0
    1.6398    1.0421   -1.1851 H   0  0  0  0  0  0  0  0  0  0  0  0
    2.3158   -0.5958   -1.1439 H   0  0  0  0  0  0  0  0  0  0  0  0
    2.0461   -0.3998    1.5235 H   0  0  0  0  0  0  0  0  0  0  0  0
    4.2615    0.1929   -0.2724 H   0  0  0  0  0  0  0  0  0  0  0  0
    4.3667    0.0169    1.5171 H   0  0  0  0  0  0  0  0  0  0  0  0
    3.5482    2.6577    2.5501 H   0  0  0  0  0  0  0  0  0  0  0  0
    3.1376    3.5902    1.0630 H   0  0  0  0  0  0  0  0  0  0  0  0
    1.1634    2.2984    0.7375 H   0  0  0  0  0  0  0  0  0  0  0  0
    1.3895    1.6657    2.3673 H   0  0  0  0  0  0  0  0  0  0  0  0
  1  2  1  0
  2  3  2  0
  2  4  1  0
  4  5  2  0
  5  6  1  0
  6  7  1  0
  7  8  1  0
  8  9  1  0
  9 10  1  0
  8 11  1  0
 11 12  1  0
  8 13  1  0
 13 14  1  0
  6 15  1  0
 15 16  1  0
 16 17  1  0
 17 18  1  0
 18 19  1  0
 19 20  1  0
  5 14  1  0
 20 16  1  0
  4 21  1  0
  7 22  1  0
  7 23  1  0
 10 24  1  0
 10 25  1  0
 10 26  1  0
 12 27  1  0
 12 28  1  0
 12 29  1  0
 13 30  1  0
 13 31  1  0
 14 32  1  0
 15 33  1  0
 15 34  1  0
 16 35  1  0
 17 36  1  0
 17 37  1  0
 19 38  1  0
 19 39  1  0
 20 40  1  0
 20 41  1  0
M  CHG  2   1  -1   2   1
A    1
-0.473151
A    2
0.640850
A    3
-0.486135
A    4
-0.403091
A    5
0.358584
A    6
-0.135288
A    7
-0.147898
A    8
0.399548
A    9
-0.316074
A   10
-0.125425
A   11
-0.320086
A   12
-0.121253
A   13
-0.082326
A   14
-0.356400
A   15
-0.061292
A   16
-0.018362
A   17
0.034486
A   18
-0.308647
A   19
0.071194
A   20
-0.191778
A   21
0.137490
A   22
0.108675
A   23
0.090842
A   24
0.106704
A   25
0.095024
A   26
0.083641
A   27
0.106551
A   28
0.084195
A   29
0.092636
A   30
0.087820
A   31
0.110088
A   32
0.303538
A   33
0.095320
A   34
0.081464
A   35
0.066509
A   36
0.070820
A   37
0.050498
A   38
0.042151
A   39
0.061888
A   40
0.078526
A   41
0.088165
M  END
$$$$
