
     RDKit          3D

 36 36  0  0  0  0  0  0  0  0999 V2000
   -1.5510   -0.5088   -0.8849 P   0  0  0  0  0  0  0  0  0  0  0  0
   -2.2925   -1.0622   -2.0294 O   0  0  0  0  0  0  0  0  0  0  0  0
   -1.9246   -1.0592    0.5763 O   0  0  0  0  0  0  0  0  0  0  0  0
   -3.2991   -1.1028    1.0489 C   0  0  0  0  0  0  0  0  0  0  0  0
   -3.0580   -1.6005    2.4737 C   0  0  0  0  0  0  0  0  0  0  0  0
   -1.8435    1.0577   -0.6135 O   0  0  0  0  0  0  0  0  0  0  0  0
   -1.7044    2.0457   -1.6647 C   0  0  0  0  0  0  0  0  0  0  0  0
   -1.6430    3.3244   -0.8279 C   0  0  0  0  0  0  0  0  0  0  0  0
    0.2247   -0.7292   -0.7611 C   0  0  0  0  0  0  0  0  0  0  0  0
    0.8657   -1.8330   -1.3664 C   0  0  0  0  0  0  0  0  0  0  0  0
    0.0932   -2.7224   -2.0234 O   0  0  0  0  0  0  0  0  0  0  0  0
    2.2552   -2.0008   -1.2904 C   0  0  0  0  0  0  0  0  0  0  0  0
    3.0116   -1.0706   -0.5948 C   0  0  0  0  0  0  0  0  0  0  0  0
    2.3997    0.0252    0.0226 C   0  0  0  0  0  0  0  0  0  0  0  0
    1.0168    0.1948   -0.0538 C   0  0  0  0  0  0  0  0  0  0  0  0
    3.2335    1.0060    0.7883 C   0  0  0  0  0  0  0  0  0  0  0  0
    3.5065    0.4760    2.1985 C   0  0  0  0  0  0  0  0  0  0  0  0
   -3.9088   -1.8176    0.4619 H   0  0  0  0  0  0  0  0  0  0  0  0
   -3.7873   -0.1099    1.0425 H   0  0  0  0  0  0  0  0  0  0  0  0
   -2.5052   -2.5494    2.4791 H   0  0  0  0  0  0  0  0  0  0  0  0
   -4.0103   -1.7598    2.9922 H   0  0  0  0  0  0  0  0  0  0  0  0
   -2.4697   -0.8805    3.0565 H   0  0  0  0  0  0  0  0  0  0  0  0
   -0.7996    1.9313   -2.2911 H   0  0  0  0  0  0  0  0  0  0  0  0
   -2.6035    2.0205   -2.3131 H   0  0  0  0  0  0  0  0  0  0  0  0
   -2.4681    3.3621   -0.1036 H   0  0  0  0  0  0  0  0  0  0  0  0
   -1.7141    4.2111   -1.4666 H   0  0  0  0  0  0  0  0  0  0  0  0
   -0.7096    3.3868   -0.2561 H   0  0  0  0  0  0  0  0  0  0  0  0
    0.6286   -3.4589   -2.4338 H   0  0  0  0  0  0  0  0  0  0  0  0
    2.7277   -2.8532   -1.7721 H   0  0  0  0  0  0  0  0  0  0  0  0
    4.0940   -1.1949   -0.5226 H   0  0  0  0  0  0  0  0  0  0  0  0
    0.5794    1.0686    0.4529 H   0  0  0  0  0  0  0  0  0  0  0  0
    4.1917    1.1999    0.2638 H   0  0  0  0  0  0  0  0  0  0  0  0
    2.7357    1.9959    0.8459 H   0  0  0  0  0  0  0  0  0  0  0  0
    4.0556   -0.4725    2.1706 H   0  0  0  0  0  0  0  0  0  0  0  0
    4.1008    1.1846    2.7847 H   0  0  0  0  0  0  0  0  0  0  0  0
    2.5717    0.2954    2.7437 H   0  0  0  0  0  0  0  0  0  0  0  0
  1  2  2  0
  1  3  1  0
  3  4  1  0
  4  5  1  0
  1  6  1  0
  6  7  1  0
  7  8  1  0
  1  9  1  0
  9 10  2  0
 10 11  1  0
 10 12  1  0
 12 13  2  0
 13 14  1  0
 14 15  2  0
 14 16  1  0
 16 17  1  0
 15  9  1  0
  4 18  1  0
  4 19  1  0
  5 20  1  0
  5 21  1  0
  5 22  1  0
  7 23  1  0
  7 24  1  0
  8 25  1  0
  8 26  1  0
  8 27  1  0
 11 28  1  0
 12 29  1  0
 13 30  1  0
 15 31  1  0
 16 32  1  0
 16 33  1  0
 17 34  1  0
 17 35  1  0
 17 36  1  0
A    1
1.228688
A    2
-0.767474
A    3
-0.435122
A    4
0.150732
A    5
-0.361571
A    6
-0.445681
A    7
0.147155
A    8
-0.360970
A    9
-0.340920
A   10
0.349146
A   11
-0.473559
A   12
-0.252357
A   13
-0.096687
A   14
0.070291
A   15
-0.097938
A   16
-0.115528
A   17
-0.321766
A   18
0.063680
A   19
0.062712
A   20
0.118187
A   21
0.103258
A   22
0.114735
A   23
0.059937
A   24
0.065678
A   25
0.118185
A   26
0.107405
A   27
0.111354
A   28
0.400088
A   29
0.126895
A   30
0.110794
A   31
0.106624
A   32
0.075395
A   33
0.075952
A   34
0.099911
A   35
0.099797
A   36
0.102972
M  END
$$$$
