
     RDKit          3D

 50 52  0  0  0  0  0  0  0  0999 V2000
    3.5529    2.1244   -0.4874 O   0  0  0  0  0  0  0  0  0  0  0  0
    3.5910    0.9258   -0.5923 C   0  0  0  0  0  0  0  0  0  0  0  0
    2.5266    0.1265   -0.3359 O   0  0  0  0  0  0  0  0  0  0  0  0
    1.3029    0.7530    0.0646 C   0  0  0  0  0  0  0  0  0  0  0  0
    0.5688   -0.2672    0.9472 C   0  0  0  0  0  0  0  0  0  0  0  0
   -0.9376    0.0528    0.9263 C   0  0  0  0  0  0  0  0  0  0  0  0
   -1.4018   -0.0928    2.2761 O   0  0  0  0  0  0  0  0  0  0  0  0
   -1.6615   -1.1075    0.1818 C   0  0  0  0  0  0  0  0  0  0  0  0
   -3.1363   -0.9510    0.5884 C   0  0  0  0  0  0  0  0  0  0  0  0
   -3.5705    0.3042    0.0811 O   0  0  0  0  0  0  0  0  0  0  0  0
   -2.9268    1.4573    0.6035 C   0  0  0  0  0  0  0  0  0  0  0  0
   -3.4614    2.5238   -0.1247 O   0  0  0  0  0  0  0  0  0  0  0  0
   -1.3715    1.4473    0.4921 C   0  0  0  0  0  0  0  0  0  0  0  0
   -0.8066    1.8659   -0.8760 C   0  0  0  0  0  0  0  0  0  0  0  0
    0.5516    1.1976   -1.1901 C   0  0  0  0  0  0  0  0  0  0  0  0
   -0.6535    3.3921   -0.9239 C   0  0  0  0  0  0  0  0  0  0  0  0
   -0.8473   -2.3051    0.6859 C   0  0  0  0  0  0  0  0  0  0  0  0
    0.6431   -1.8148    0.7024 C   0  0  0  0  0  0  0  0  0  0  0  0
    1.3652   -2.2253   -0.5801 C   0  0  0  0  0  0  0  0  0  0  0  0
    1.3683   -2.4817    1.8848 C   0  0  0  0  0  0  0  0  0  0  0  0
   -1.6523   -1.1024   -1.3490 C   0  0  0  0  0  0  0  0  0  0  0  0
    4.7526    0.0849   -1.0024 C   0  0  0  0  0  0  0  0  0  0  0  0
    1.5555    1.6531    0.6821 H   0  0  0  0  0  0  0  0  0  0  0  0
    0.9597   -0.0991    1.9850 H   0  0  0  0  0  0  0  0  0  0  0  0
   -0.9073    0.4805    2.8864 H   0  0  0  0  0  0  0  0  0  0  0  0
   -3.8089   -1.6603    0.0766 H   0  0  0  0  0  0  0  0  0  0  0  0
   -3.3075   -1.0012    1.6772 H   0  0  0  0  0  0  0  0  0  0  0  0
   -3.2736    1.6188    1.6469 H   0  0  0  0  0  0  0  0  0  0  0  0
   -3.6539    2.2618   -1.0503 H   0  0  0  0  0  0  0  0  0  0  0  0
   -1.0010    2.1883    1.2473 H   0  0  0  0  0  0  0  0  0  0  0  0
   -1.5308    1.5619   -1.6716 H   0  0  0  0  0  0  0  0  0  0  0  0
    1.1937    1.9027   -1.7587 H   0  0  0  0  0  0  0  0  0  0  0  0
    0.4103    0.3357   -1.8682 H   0  0  0  0  0  0  0  0  0  0  0  0
    0.1353    3.7428   -0.2491 H   0  0  0  0  0  0  0  0  0  0  0  0
   -0.3988    3.7367   -1.9315 H   0  0  0  0  0  0  0  0  0  0  0  0
   -1.5872    3.8927   -0.6316 H   0  0  0  0  0  0  0  0  0  0  0  0
   -1.1691   -2.5865    1.7043 H   0  0  0  0  0  0  0  0  0  0  0  0
   -0.9703   -3.1986    0.0614 H   0  0  0  0  0  0  0  0  0  0  0  0
    2.4503   -2.0869   -0.4887 H   0  0  0  0  0  0  0  0  0  0  0  0
    1.1920   -3.2808   -0.8149 H   0  0  0  0  0  0  0  0  0  0  0  0
    1.0450   -1.6343   -1.4443 H   0  0  0  0  0  0  0  0  0  0  0  0
    1.3940   -3.5698    1.7652 H   0  0  0  0  0  0  0  0  0  0  0  0
    0.8713   -2.2692    2.8378 H   0  0  0  0  0  0  0  0  0  0  0  0
    2.4040   -2.1343    1.9615 H   0  0  0  0  0  0  0  0  0  0  0  0
   -0.6394   -1.0686   -1.7632 H   0  0  0  0  0  0  0  0  0  0  0  0
   -2.2183   -0.2561   -1.7595 H   0  0  0  0  0  0  0  0  0  0  0  0
   -2.1251   -2.0154   -1.7325 H   0  0  0  0  0  0  0  0  0  0  0  0
    5.6543    0.7024   -1.1372 H   0  0  0  0  0  0  0  0  0  0  0  0
    4.9765   -0.6882   -0.2515 H   0  0  0  0  0  0  0  0  0  0  0  0
    4.5527   -0.4359   -1.9515 H   0  0  0  0  0  0  0  0  0  0  0  0
  1  2  2  0
  2  3  1  0
  3  4  1  0
  4  5  1  0
  5  6  1  0
  6  7  1  0
  6  8  1  0
  8  9  1  0
  9 10  1  0
 10 11  1  0
 11 12  1  0
 11 13  1  0
 13 14  1  0
 14 15  1  0
 14 16  1  0
  8 17  1  0
 17 18  1  0
 18 19  1  0
 18 20  1  0
  8 21  1  0
  2 22  1  0
 15  4  1  0
 18  5  1  0
 13  6  1  0
  4 23  1  0
  5 24  1  0
  7 25  1  0
  9 26  1  0
  9 27  1  0
 11 28  1  0
 12 29  1  0
 13 30  1  0
 14 31  1  0
 15 32  1  0
 15 33  1  0
 16 34  1  0
 16 35  1  0
 16 36  1  0
 17 37  1  0
 17 38  1  0
 19 39  1  0
 19 40  1  0
 19 41  1  0
 20 42  1  0
 20 43  1  0
 20 44  1  0
 21 45  1  0
 21 46  1  0
 21 47  1  0
 22 48  1  0
 22 49  1  0
 22 50  1  0
A    1
-0.557066
A    2
0.681462
A    3
-0.297357
A    4
0.201461
A    5
-0.180349
A    6
0.261397
A    7
-0.577586
A    8
0.091064
A    9
0.025806
A   10
-0.350419
A   11
0.401683
A   12
-0.580321
A   13
-0.205252
A   14
0.087227
A   15
-0.234460
A   16
-0.369164
A   17
-0.232988
A   18
0.230883
A   19
-0.383375
A   20
-0.381886
A   21
-0.375770
A   22
-0.496999
A   23
0.044227
A   24
0.076934
A   25
0.372714
A   26
0.072135
A   27
0.067644
A   28
0.021904
A   29
0.388307
A   30
0.082693
A   31
0.043758
A   32
0.093845
A   33
0.082222
A   34
0.105052
A   35
0.103703
A   36
0.104852
A   37
0.084701
A   38
0.088494
A   39
0.103848
A   40
0.099053
A   41
0.100094
A   42
0.108709
A   43
0.102119
A   44
0.103371
A   45
0.106171
A   46
0.104292
A   47
0.113257
A   48
0.150106
A   49
0.157193
A   50
0.160616
M  END
$$$$
