
     RDKit          3D

 41 43  0  0  0  0  0  0  0  0999 V2000
   -6.4255   -2.6624    0.4208 C   0  0  0  0  0  0  0  0  0  0  0  0
   -5.3591   -1.7188    0.5206 O   0  0  0  0  0  0  0  0  0  0  0  0
   -4.9355   -1.1628   -0.6370 C   0  0  0  0  0  0  0  0  0  0  0  0
   -5.4218   -1.4270   -1.7104 O   0  0  0  0  0  0  0  0  0  0  0  0
   -3.8380   -0.2363   -0.3793 C   0  0  0  0  0  0  0  0  0  0  0  0
   -3.2859    0.1071    0.8081 C   0  0  0  0  0  0  0  0  0  0  0  0
   -3.6215   -0.3709    2.1739 C   0  0  0  0  0  0  0  0  0  0  0  0
   -4.4381    0.0952    2.9228 O   0  0  0  0  0  0  0  0  0  0  0  0
   -2.8521   -1.4284    2.4819 O   0  0  0  0  0  0  0  0  0  0  0  0
   -2.2890    1.1020    0.6686 N   0  0  0  0  0  0  0  0  0  0  0  0
   -0.8649    0.7931    0.7609 C   0  0  0  0  0  0  0  0  0  0  0  0
   -0.2102    0.4737    1.6899 O   0  0  0  0  0  0  0  0  0  0  0  0
   -0.6392    1.1376   -0.7634 C   0  0  1  0  0  0  0  0  0  0  0  0
   -0.1493    0.0329   -1.5278 N   0  0  0  0  0  0  0  0  0  0  0  0
    1.2010   -0.2840   -1.6452 C   0  0  0  0  0  0  0  0  0  0  0  0
    1.4736   -1.2589   -2.3186 O   0  0  0  0  0  0  0  0  0  0  0  0
    2.2185    0.5847   -0.9561 C   0  0  0  0  0  0  0  0  0  0  0  0
    3.4900   -0.1799   -0.7470 C   0  0  0  0  0  0  0  0  0  0  0  0
    3.7433   -0.7813    0.4872 C   0  0  0  0  0  0  0  0  0  0  0  0
    4.9279   -1.4866    0.6848 C   0  0  0  0  0  0  0  0  0  0  0  0
    5.8592   -1.5931   -0.3467 C   0  0  0  0  0  0  0  0  0  0  0  0
    5.6022   -0.9980   -1.5807 C   0  0  0  0  0  0  0  0  0  0  0  0
    4.4191   -0.2912   -1.7829 C   0  0  0  0  0  0  0  0  0  0  0  0
   -2.1884    1.4294   -0.8292 C   0  0  1  0  0  0  0  0  0  0  0  0
   -3.1778    0.4867   -1.5286 C   0  0  0  0  0  0  0  0  0  0  0  0
   -6.1172   -3.5164   -0.1920 H   0  0  0  0  0  0  0  0  0  0  0  0
   -6.5857   -2.9563    1.4666 H   0  0  0  0  0  0  0  0  0  0  0  0
   -7.3167   -2.1845    0.0009 H   0  0  0  0  0  0  0  0  0  0  0  0
   -3.0202   -1.8000    3.3995 H   0  0  0  0  0  0  0  0  0  0  0  0
   -0.0263    2.0588   -0.8995 H   0  0  0  0  0  0  0  0  0  0  0  0
   -0.8324   -0.6070   -1.9372 H   0  0  0  0  0  0  0  0  0  0  0  0
    1.8407    0.9720    0.0186 H   0  0  0  0  0  0  0  0  0  0  0  0
    2.4023    1.4967   -1.5749 H   0  0  0  0  0  0  0  0  0  0  0  0
    3.0164   -0.7051    1.2956 H   0  0  0  0  0  0  0  0  0  0  0  0
    5.1249   -1.9571    1.6477 H   0  0  0  0  0  0  0  0  0  0  0  0
    6.7864   -2.1423   -0.1891 H   0  0  0  0  0  0  0  0  0  0  0  0
    6.3259   -1.0877   -2.3901 H   0  0  0  0  0  0  0  0  0  0  0  0
    4.2138    0.1638   -2.7509 H   0  0  0  0  0  0  0  0  0  0  0  0
   -2.4075    2.4984   -1.0199 H   0  0  0  0  0  0  0  0  0  0  0  0
   -2.7156   -0.2156   -2.2497 H   0  0  0  0  0  0  0  0  0  0  0  0
   -3.9206    1.0540   -2.1311 H   0  0  0  0  0  0  0  0  0  0  0  0
  1  2  1  0
  2  3  1  0
  3  4  2  0
  3  5  1  0
  5  6  2  0
  6  7  1  0
  7  8  2  0
  7  9  1  0
  6 10  1  0
 10 11  1  0
 11 12  2  0
 11 13  1  0
 13 14  1  0
 14 15  1  0
 15 16  2  0
 15 17  1  0
 17 18  1  0
 18 19  2  0
 19 20  1  0
 20 21  2  0
 21 22  1  0
 22 23  2  0
 13 24  1  0
 24 25  1  0
 25  5  1  0
 24 10  1  0
 23 18  1  0
  1 26  1  0
  1 27  1  0
  1 28  1  0
  9 29  1  0
 13 30  1  1
 14 31  1  0
 17 32  1  0
 17 33  1  0
 19 34  1  0
 20 35  1  0
 21 36  1  0
 22 37  1  0
 23 38  1  0
 24 39  1  1
 25 40  1  0
 25 41  1  0
A    1
-0.120793
A    2
-0.250308
A    3
0.574965
A    4
-0.526315
A    5
-0.145404
A    6
0.074711
A    7
0.644419
A    8
-0.521384
A    9
-0.523804
A   10
-0.249324
A   11
0.485518
A   12
-0.421332
A   13
0.004935
A   14
-0.434061
A   15
0.594265
A   16
-0.560059
A   17
-0.313016
A   18
0.126864
A   19
-0.155961
A   20
-0.091914
A   21
-0.109711
A   22
-0.096518
A   23
-0.147857
A   24
0.095152
A   25
-0.177235
A   26
0.105371
A   27
0.112133
A   28
0.105641
A   29
0.433887
A   30
0.097772
A   31
0.303629
A   32
0.114052
A   33
0.132487
A   34
0.109655
A   35
0.102133
A   36
0.103168
A   37
0.103535
A   38
0.109629
A   39
0.087077
A   40
0.105658
A   41
0.118343
M  END
$$$$
