
     RDKit          3D

 34 35  0  0  0  0  0  0  0  0999 V2000
    5.6814   -1.0450    1.4361 Br  0  0  0  0  0  0  0  0  0  0  0  0
    3.9359   -0.5186    0.9133 C   0  0  0  0  0  0  0  0  0  0  0  0
    3.5481   -0.6929   -0.4100 C   0  0  0  0  0  0  0  0  0  0  0  0
    2.2664   -0.3112   -0.7943 C   0  0  0  0  0  0  0  0  0  0  0  0
    1.3938    0.2443    0.1533 C   0  0  0  0  0  0  0  0  0  0  0  0
    0.0755    0.6092   -0.2259 N   0  0  0  0  0  0  0  0  0  0  0  0
   -0.1916    1.6448   -1.1147 C   0  0  0  0  0  0  0  0  0  0  0  0
   -1.3761    2.2507   -1.1943 N   0  0  0  0  0  0  0  0  0  0  0  0
   -2.3319    1.8879   -0.2250 C   0  0  0  0  0  0  0  0  0  0  0  0
   -2.1752    0.9537    0.6911 N   0  0  0  0  0  0  0  0  0  0  0  0
   -1.0909    0.0130    0.5450 C   0  0  0  0  0  0  0  0  0  0  0  0
   -1.5718   -1.2714   -0.2136 C   0  0  0  0  0  0  0  0  0  0  0  0
   -2.7910   -1.8395    0.5173 C   0  0  0  0  0  0  0  0  0  0  0  0
   -0.4663   -2.3260   -0.2686 C   0  0  0  0  0  0  0  0  0  0  0  0
   -3.4944    2.6335   -0.2609 N   0  0  0  0  0  0  0  0  0  0  0  0
    0.7880    2.0640   -2.0011 N   0  0  0  0  0  0  0  0  0  0  0  0
    1.8037    0.4178    1.4835 C   0  0  0  0  0  0  0  0  0  0  0  0
    3.0836    0.0288    1.8659 C   0  0  0  0  0  0  0  0  0  0  0  0
    4.2242   -1.1290   -1.1475 H   0  0  0  0  0  0  0  0  0  0  0  0
    1.9321   -0.4651   -1.8222 H   0  0  0  0  0  0  0  0  0  0  0  0
   -0.7293   -0.2566    1.5753 H   0  0  0  0  0  0  0  0  0  0  0  0
   -1.8639   -0.9804   -1.2498 H   0  0  0  0  0  0  0  0  0  0  0  0
   -3.5933   -1.0900    0.5908 H   0  0  0  0  0  0  0  0  0  0  0  0
   -2.5451   -2.1427    1.5404 H   0  0  0  0  0  0  0  0  0  0  0  0
   -3.1975   -2.7092   -0.0073 H   0  0  0  0  0  0  0  0  0  0  0  0
   -0.0380   -2.5207    0.7204 H   0  0  0  0  0  0  0  0  0  0  0  0
    0.3494   -2.0245   -0.9339 H   0  0  0  0  0  0  0  0  0  0  0  0
   -0.8544   -3.2787   -0.6488 H   0  0  0  0  0  0  0  0  0  0  0  0
   -3.4956    3.4889   -0.7805 H   0  0  0  0  0  0  0  0  0  0  0  0
   -4.1274    2.5560    0.5115 H   0  0  0  0  0  0  0  0  0  0  0  0
    0.5720    2.8732   -2.5649 H   0  0  0  0  0  0  0  0  0  0  0  0
    1.7551    1.9120   -1.7961 H   0  0  0  0  0  0  0  0  0  0  0  0
    1.1243    0.8615    2.2131 H   0  0  0  0  0  0  0  0  0  0  0  0
    3.4003    0.1619    2.9023 H   0  0  0  0  0  0  0  0  0  0  0  0
  1  2  1  0
  2  3  2  0
  3  4  1  0
  4  5  2  0
  5  6  1  0
  6  7  1  0
  7  8  2  0
  8  9  1  0
  9 10  2  0
 10 11  1  0
 11 12  1  0
 12 13  1  0
 12 14  1  0
  9 15  1  0
  7 16  1  0
  5 17  1  0
 17 18  2  0
 18  2  1  0
 11  6  1  0
  3 19  1  0
  4 20  1  0
 11 21  1  0
 12 22  1  0
 13 23  1  0
 13 24  1  0
 13 25  1  0
 14 26  1  0
 14 27  1  0
 14 28  1  0
 15 29  1  0
 15 30  1  0
 16 31  1  0
 16 32  1  0
 17 33  1  0
 18 34  1  0
A    1
-0.138416
A    2
0.102874
A    3
-0.125550
A    4
-0.158040
A    5
0.185895
A    6
-0.280218
A    7
0.590919
A    8
-0.681301
A    9
0.616462
A   10
-0.643008
A   11
0.254826
A   12
0.052759
A   13
-0.351651
A   14
-0.362508
A   15
-0.692852
A   16
-0.687491
A   17
-0.157563
A   18
-0.119248
A   19
0.127754
A   20
0.130467
A   21
0.044371
A   22
0.061302
A   23
0.100006
A   24
0.103730
A   25
0.099632
A   26
0.103048
A   27
0.096929
A   28
0.107024
A   29
0.335761
A   30
0.336661
A   31
0.350700
A   32
0.332480
A   33
0.137653
A   34
0.126594
M  END
$$$$
