
     RDKit          3D

 39 41  0  0  0  0  0  0  0  0999 V2000
    7.2153   -0.9478   -1.4756 F   0  0  0  0  0  0  0  0  0  0  0  0
    5.9889   -0.5715   -1.1439 C   0  0  0  0  0  0  0  0  0  0  0  0
    5.0839   -1.5448   -0.7235 C   0  0  0  0  0  0  0  0  0  0  0  0
    3.7969   -1.1464   -0.3798 C   0  0  0  0  0  0  0  0  0  0  0  0
    3.4443    0.2095   -0.4540 C   0  0  0  0  0  0  0  0  0  0  0  0
    2.1310    0.6155   -0.0952 N   0  0  0  0  0  0  0  0  0  0  0  0
    1.3581   -0.0216    0.9096 C   0  0  0  0  0  0  0  0  0  0  0  0
    1.7757   -0.8703    1.6396 O   0  0  0  0  0  0  0  0  0  0  0  0
   -0.0452    0.6311    0.9205 C   0  0  0  0  0  0  0  0  0  0  0  0
   -1.0102   -0.4534    0.6627 N   0  0  0  0  0  0  0  0  0  0  0  0
   -0.7113   -0.8672   -0.6649 O   0  0  0  0  0  0  0  0  0  0  0  0
   -2.4009   -0.0959    0.7162 C   0  0  0  0  0  0  0  0  0  0  0  0
   -3.3473   -1.1192    0.4455 C   0  0  0  0  0  0  0  0  0  0  0  0
   -2.7991   -2.3054    0.0748 O   0  0  0  0  0  0  0  0  0  0  0  0
   -3.6844   -3.3445   -0.3212 C   0  0  0  0  0  0  0  0  0  0  0  0
   -4.7137   -0.8885    0.5812 C   0  0  0  0  0  0  0  0  0  0  0  0
   -5.1578    0.3646    1.0008 C   0  0  0  0  0  0  0  0  0  0  0  0
   -4.2447    1.3752    1.2782 C   0  0  0  0  0  0  0  0  0  0  0  0
   -2.8760    1.1478    1.1309 C   0  0  0  0  0  0  0  0  0  0  0  0
    0.0330    1.7401   -0.1512 C   0  0  0  0  0  0  0  0  0  0  0  0
    1.4088    1.6316   -0.7714 C   0  0  0  0  0  0  0  0  0  0  0  0
    1.8607    2.2919   -1.6640 O   0  0  0  0  0  0  0  0  0  0  0  0
    4.3734    1.1715   -0.8771 C   0  0  0  0  0  0  0  0  0  0  0  0
    5.6600    0.7801   -1.2309 C   0  0  0  0  0  0  0  0  0  0  0  0
    5.3710   -2.5939   -0.6643 H   0  0  0  0  0  0  0  0  0  0  0  0
    3.0692   -1.8900   -0.0473 H   0  0  0  0  0  0  0  0  0  0  0  0
   -0.2458    1.0354    1.9459 H   0  0  0  0  0  0  0  0  0  0  0  0
   -0.9119   -1.8496   -0.6395 H   0  0  0  0  0  0  0  0  0  0  0  0
   -2.9843   -4.1487   -0.5909 H   0  0  0  0  0  0  0  0  0  0  0  0
   -4.2809   -3.0460   -1.1887 H   0  0  0  0  0  0  0  0  0  0  0  0
   -4.3163   -3.6576    0.5161 H   0  0  0  0  0  0  0  0  0  0  0  0
   -5.4380   -1.6703    0.3724 H   0  0  0  0  0  0  0  0  0  0  0  0
   -6.2266    0.5476    1.1117 H   0  0  0  0  0  0  0  0  0  0  0  0
   -4.5955    2.3508    1.6083 H   0  0  0  0  0  0  0  0  0  0  0  0
   -2.1868    1.9623    1.3492 H   0  0  0  0  0  0  0  0  0  0  0  0
   -0.7436    1.6105   -0.9373 H   0  0  0  0  0  0  0  0  0  0  0  0
   -0.1270    2.7514    0.2637 H   0  0  0  0  0  0  0  0  0  0  0  0
    4.0900    2.2240   -0.9398 H   0  0  0  0  0  0  0  0  0  0  0  0
    6.3878    1.5174   -1.5674 H   0  0  0  0  0  0  0  0  0  0  0  0
  1  2  1  0
  2  3  2  0
  3  4  1  0
  4  5  2  0
  5  6  1  0
  6  7  1  0
  7  8  2  0
  7  9  1  0
  9 10  1  0
 10 11  1  0
 10 12  1  0
 12 13  2  0
 13 14  1  0
 14 15  1  0
 13 16  1  0
 16 17  2  0
 17 18  1  0
 18 19  2  0
  9 20  1  0
 20 21  1  0
 21 22  2  0
  5 23  1  0
 23 24  2  0
 24  2  1  0
 21  6  1  0
 19 12  1  0
  3 25  1  0
  4 26  1  0
  9 27  1  0
 11 28  1  0
 15 29  1  0
 15 30  1  0
 15 31  1  0
 16 32  1  0
 17 33  1  0
 18 34  1  0
 19 35  1  0
 20 36  1  0
 20 37  1  0
 23 38  1  0
 24 39  1  0
A    1
-0.165867
A    2
0.299238
A    3
-0.221960
A    4
-0.133288
A    5
0.171634
A    6
-0.242348
A    7
0.495753
A    8
-0.474931
A    9
-0.020997
A   10
-0.022140
A   11
-0.456495
A   12
0.025932
A   13
0.193999
A   14
-0.204335
A   15
-0.129625
A   16
-0.232443
A   17
-0.081006
A   18
-0.121554
A   19
-0.160782
A   20
-0.331520
A   21
0.564020
A   22
-0.497663
A   23
-0.135097
A   24
-0.221093
A   25
0.146109
A   26
0.133841
A   27
0.111049
A   28
0.369082
A   29
0.112561
A   30
0.102574
A   31
0.102028
A   32
0.123572
A   33
0.107669
A   34
0.108193
A   35
0.113076
A   36
0.149328
A   37
0.144259
A   38
0.133626
A   39
0.145599
M  END
$$$$
