
     RDKit          3D

 42 44  0  0  0  0  0  0  0  0999 V2000
   -2.5716    1.1691    3.3622 O   0  0  0  0  0  0  0  0  0  0  0  0
   -2.4678    0.6945    2.2702 C   0  0  0  0  0  0  0  0  0  0  0  0
   -1.4921    1.1277    1.4119 O   0  0  0  0  0  0  0  0  0  0  0  0
   -1.5674    0.4313    0.1562 C   0  0  2  0  0  0  0  0  0  0  0  0
   -0.1639   -0.0221   -0.1574 C   0  0  0  0  0  0  0  0  0  0  0  0
    0.3646    0.1402   -1.4408 C   0  0  0  0  0  0  0  0  0  0  0  0
    1.6814   -0.3022   -1.6702 C   0  0  0  0  0  0  0  0  0  0  0  0
    2.1624   -0.0876   -2.9072 O   0  0  0  0  0  0  0  0  0  0  0  0
    2.4542   -0.9116   -0.6697 C   0  0  0  0  0  0  0  0  0  0  0  0
    1.8742   -1.0488    0.5983 C   0  0  0  0  0  0  0  0  0  0  0  0
    2.6865   -1.6336    1.5092 O   0  0  0  0  0  0  0  0  0  0  0  0
    2.1767   -1.8052    2.8272 C   0  0  0  0  0  0  0  0  0  0  0  0
    0.5695   -0.6115    0.8627 C   0  0  0  0  0  0  0  0  0  0  0  0
    3.8505   -1.3681   -0.9336 C   0  0  0  0  0  0  0  0  0  0  0  0
    4.8281   -0.1919   -0.8537 C   0  0  0  0  0  0  0  0  0  0  0  0
   -0.4208    0.7760   -2.5185 C   0  0  0  0  0  0  0  0  0  0  0  0
   -0.1506    0.6664   -3.6905 O   0  0  0  0  0  0  0  0  0  0  0  0
   -1.5925    1.5620   -2.0885 C   0  0  0  0  0  0  0  0  0  0  0  0
   -2.1095    1.4128   -0.8631 C   0  0  0  0  0  0  0  0  0  0  0  0
   -3.1977    2.0178   -0.3418 O   0  0  0  0  0  0  0  0  0  0  0  0
   -3.7798    3.0656   -1.1128 C   0  0  0  0  0  0  0  0  0  0  0  0
   -2.5476   -0.7532    0.3376 C   0  0  0  0  0  0  0  0  0  0  0  0
   -3.2865   -0.4362    1.6381 C   0  0  1  0  0  0  0  0  0  0  0  0
   -3.2073   -1.5833    2.4468 O   0  0  0  0  0  0  0  0  0  0  0  0
    3.1033   -0.3991   -3.0093 H   0  0  0  0  0  0  0  0  0  0  0  0
    3.0253   -2.2781    3.3402 H   0  0  0  0  0  0  0  0  0  0  0  0
    1.3080   -2.4713    2.8270 H   0  0  0  0  0  0  0  0  0  0  0  0
    1.9428   -0.8381    3.2854 H   0  0  0  0  0  0  0  0  0  0  0  0
    0.1364   -0.7101    1.8544 H   0  0  0  0  0  0  0  0  0  0  0  0
    3.9272   -1.8759   -1.9176 H   0  0  0  0  0  0  0  0  0  0  0  0
    4.1519   -2.1501   -0.2010 H   0  0  0  0  0  0  0  0  0  0  0  0
    4.8290    0.2443    0.1542 H   0  0  0  0  0  0  0  0  0  0  0  0
    4.5626    0.6129   -1.5480 H   0  0  0  0  0  0  0  0  0  0  0  0
    5.8531   -0.5074   -1.0751 H   0  0  0  0  0  0  0  0  0  0  0  0
   -1.9906    2.2346   -2.8407 H   0  0  0  0  0  0  0  0  0  0  0  0
   -3.0480    3.8569   -1.3086 H   0  0  0  0  0  0  0  0  0  0  0  0
   -4.5722    3.4308   -0.4461 H   0  0  0  0  0  0  0  0  0  0  0  0
   -4.2011    2.6702   -2.0421 H   0  0  0  0  0  0  0  0  0  0  0  0
   -3.2264   -0.8695   -0.5234 H   0  0  0  0  0  0  0  0  0  0  0  0
   -2.0089   -1.7222    0.4254 H   0  0  0  0  0  0  0  0  0  0  0  0
   -4.3489   -0.1476    1.4978 H   0  0  0  0  0  0  0  0  0  0  0  0
   -3.5365   -1.3886    3.3551 H   0  0  0  0  0  0  0  0  0  0  0  0
  1  2  2  0
  2  3  1  0
  4  3  1  1
  4  5  1  0
  5  6  1  0
  6  7  2  0
  7  8  1  0
  7  9  1  0
  9 10  2  0
 10 11  1  0
 11 12  1  0
 10 13  1  0
  9 14  1  0
 14 15  1  0
  6 16  1  0
 16 17  2  0
 16 18  1  0
 18 19  2  0
 19 20  1  0
 20 21  1  0
  4 22  1  0
 22 23  1  0
 23 24  1  0
 23  2  1  0
 19  4  1  0
 13  5  2  0
  8 25  1  0
 12 26  1  0
 12 27  1  0
 12 28  1  0
 13 29  1  0
 14 30  1  0
 14 31  1  0
 15 32  1  0
 15 33  1  0
 15 34  1  0
 18 35  1  0
 21 36  1  0
 21 37  1  0
 21 38  1  0
 22 39  1  0
 22 40  1  0
 23 41  1  6
 24 42  1  0
A    1
-0.500279
A    2
0.543956
A    3
-0.289627
A    4
0.201743
A    5
0.051761
A    6
-0.215619
A    7
0.286992
A    8
-0.453707
A    9
-0.158598
A   10
0.250320
A   11
-0.187126
A   12
-0.131894
A   13
-0.306138
A   14
-0.095230
A   15
-0.327317
A   16
0.477261
A   17
-0.484792
A   18
-0.400436
A   19
0.212595
A   20
-0.171550
A   21
-0.130783
A   22
-0.261564
A   23
0.129346
A   24
-0.526956
A   25
0.388549
A   26
0.111140
A   27
0.101233
A   28
0.102854
A   29
0.114993
A   30
0.071045
A   31
0.092155
A   32
0.110300
A   33
0.100131
A   34
0.106202
A   35
0.148847
A   36
0.108296
A   37
0.115463
A   38
0.104891
A   39
0.125199
A   40
0.131661
A   41
0.073565
A   42
0.381115
M  END
$$$$
