
     RDKit          3D

 32 33  0  0  0  0  0  0  0  0999 V2000
    0.5551   -3.3053   -2.5054 C   0  0  0  0  0  0  0  0  0  0  0  0
    0.4455   -2.5634   -1.2447 C   0  0  0  0  0  0  0  0  0  0  0  0
   -0.2155   -3.2876    0.2001 S   0  0  0  0  0  0  0  0  0  0  0  0
   -0.0614   -1.8005    1.1154 C   0  0  0  0  0  0  0  0  0  0  0  0
   -0.5056   -1.6701    2.4858 C   0  0  0  0  0  0  0  0  0  0  0  0
   -1.2524   -0.5433    2.8560 C   0  0  0  0  0  0  0  0  0  0  0  0
   -1.6483   -0.3738    4.1793 C   0  0  0  0  0  0  0  0  0  0  0  0
   -1.2994   -1.3231    5.1387 C   0  0  0  0  0  0  0  0  0  0  0  0
   -0.5698   -2.4516    4.7706 C   0  0  0  0  0  0  0  0  0  0  0  0
   -0.1719   -2.6286    3.4482 C   0  0  0  0  0  0  0  0  0  0  0  0
    0.4923   -0.8238    0.3399 C   0  0  0  0  0  0  0  0  0  0  0  0
    0.7844   -1.2540   -0.9991 C   0  0  0  0  0  0  0  0  0  0  0  0
    1.3815   -0.3388   -1.9578 C   0  0  0  0  0  0  0  0  0  0  0  0
    2.3475   -0.8257   -2.7560 O   0  0  0  0  0  0  0  0  0  0  0  0
    1.0316    0.9660   -2.1215 C   0  0  0  0  0  0  0  0  0  0  0  0
    1.7396    1.8590   -2.9958 C   0  0  0  0  0  0  0  0  0  0  0  0
    2.8482    1.7182   -3.4509 O   0  0  0  0  0  0  0  0  0  0  0  0
    0.9765    3.1545   -3.3208 C   0  0  0  0  0  0  0  0  0  0  0  0
    0.2039    3.7333   -2.5976 O   0  0  0  0  0  0  0  0  0  0  0  0
    1.2714    3.5886   -4.5596 O   0  0  0  0  0  0  0  0  0  0  0  0
    0.5852   -2.6358   -3.3876 H   0  0  0  0  0  0  0  0  0  0  0  0
    1.4651   -3.9387   -2.5485 H   0  0  0  0  0  0  0  0  0  0  0  0
   -0.3007   -3.9845   -2.6909 H   0  0  0  0  0  0  0  0  0  0  0  0
   -1.5230    0.2045    2.1086 H   0  0  0  0  0  0  0  0  0  0  0  0
   -2.2281    0.5043    4.4655 H   0  0  0  0  0  0  0  0  0  0  0  0
   -1.5892   -1.1816    6.1792 H   0  0  0  0  0  0  0  0  0  0  0  0
   -0.3071   -3.1935    5.5241 H   0  0  0  0  0  0  0  0  0  0  0  0
    0.4163   -3.5055    3.1756 H   0  0  0  0  0  0  0  0  0  0  0  0
    0.7022    0.1870    0.6768 H   0  0  0  0  0  0  0  0  0  0  0  0
    2.6099   -1.7681   -2.5418 H   0  0  0  0  0  0  0  0  0  0  0  0
    0.1903    1.3803   -1.5571 H   0  0  0  0  0  0  0  0  0  0  0  0
    0.8237    4.4451   -4.8165 H   0  0  0  0  0  0  0  0  0  0  0  0
  1  2  1  0
  2  3  1  0
  3  4  1  0
  4  5  1  0
  5  6  2  0
  6  7  1  0
  7  8  2  0
  8  9  1  0
  9 10  2  0
  4 11  2  0
 11 12  1  0
 12 13  1  0
 13 14  1  0
 13 15  2  0
 15 16  1  0
 16 17  2  0
 16 18  1  0
 18 19  2  0
 18 20  1  0
 12  2  2  0
 10  5  1  0
  1 21  1  0
  1 22  1  0
  1 23  1  0
  6 24  1  0
  7 25  1  0
  8 26  1  0
  9 27  1  0
 10 28  1  0
 11 29  1  0
 14 30  1  0
 15 31  1  0
 20 32  1  0
A    1
-0.373854
A    2
0.072207
A    3
0.038068
A    4
-0.000686
A    5
0.070063
A    6
-0.132828
A    7
-0.086504
A    8
-0.103232
A    9
-0.088322
A   10
-0.143002
A   11
-0.184506
A   12
-0.112226
A   13
0.396451
A   14
-0.445521
A   15
-0.415090
A   16
0.364718
A   17
-0.439069
A   18
0.576385
A   19
-0.531686
A   20
-0.529356
A   21
0.138040
A   22
0.130382
A   23
0.140767
A   24
0.112227
A   25
0.105776
A   26
0.107090
A   27
0.108174
A   28
0.108467
A   29
0.136344
A   30
0.405102
A   31
0.142606
A   32
0.433016
M  END
$$$$
