
     RDKit          3D

 37 40  0  0  0  0  0  0  0  0999 V2000
   -4.6998   -0.5372    0.6144 O   0  0  0  0  0  0  0  0  0  0  0  0
   -3.6012   -0.2438    0.1976 C   0  0  0  0  0  0  0  0  0  0  0  0
   -2.9732    0.8822    0.7222 N   0  0  0  0  0  0  0  0  0  0  0  0
   -1.8050    1.4683    0.1782 C   0  0  0  0  0  0  0  0  0  0  0  0
   -0.6684    0.7379   -0.2476 C   0  0  0  0  0  0  0  0  0  0  0  0
   -0.4926   -0.6286    0.0858 N   0  0  0  0  0  0  0  0  0  0  0  0
    0.6833   -1.3335   -0.3962 C   0  0  0  0  0  0  0  0  0  0  0  0
    0.3558   -2.4456   -1.0031 N   0  0  0  0  0  0  0  0  0  0  0  0
   -1.0006   -2.6155   -0.9997 O   0  0  0  0  0  0  0  0  0  0  0  0
   -1.5943   -1.6143   -0.1111 C   0  0  0  0  0  0  0  0  0  0  0  0
   -2.8337   -1.0633   -0.8052 C   0  0  0  0  0  0  0  0  0  0  0  0
   -1.8943   -2.3186    1.2075 C   0  0  0  0  0  0  0  0  0  0  0  0
    2.0408   -0.8991   -0.0866 C   0  0  0  0  0  0  0  0  0  0  0  0
    3.0832   -1.1920   -0.9712 C   0  0  0  0  0  0  0  0  0  0  0  0
    4.3793   -0.7852   -0.6658 C   0  0  0  0  0  0  0  0  0  0  0  0
    4.6347   -0.0934    0.5174 C   0  0  0  0  0  0  0  0  0  0  0  0
    3.5952    0.1892    1.4032 C   0  0  0  0  0  0  0  0  0  0  0  0
    2.2969   -0.2140    1.1058 C   0  0  0  0  0  0  0  0  0  0  0  0
    0.3454    1.4383   -0.9250 C   0  0  0  0  0  0  0  0  0  0  0  0
    0.3118    2.8198   -1.0522 C   0  0  0  0  0  0  0  0  0  0  0  0
   -0.7589    3.5437   -0.5317 C   0  0  0  0  0  0  0  0  0  0  0  0
   -1.8170    2.8684    0.0585 C   0  0  0  0  0  0  0  0  0  0  0  0
   -3.4908    1.4323    1.4063 H   0  0  0  0  0  0  0  0  0  0  0  0
   -2.5761   -0.4776   -1.7117 H   0  0  0  0  0  0  0  0  0  0  0  0
   -3.4705   -1.9010   -1.1757 H   0  0  0  0  0  0  0  0  0  0  0  0
   -1.0226   -2.8861    1.5643 H   0  0  0  0  0  0  0  0  0  0  0  0
   -2.7273   -3.0257    1.1020 H   0  0  0  0  0  0  0  0  0  0  0  0
   -2.1556   -1.6014    1.9986 H   0  0  0  0  0  0  0  0  0  0  0  0
    2.8790   -1.7423   -1.8915 H   0  0  0  0  0  0  0  0  0  0  0  0
    5.1936   -1.0107   -1.3519 H   0  0  0  0  0  0  0  0  0  0  0  0
    5.6490    0.2248    0.7523 H   0  0  0  0  0  0  0  0  0  0  0  0
    3.7974    0.7251    2.3289 H   0  0  0  0  0  0  0  0  0  0  0  0
    1.4780    0.0039    1.7945 H   0  0  0  0  0  0  0  0  0  0  0  0
    1.1857    0.9006   -1.3661 H   0  0  0  0  0  0  0  0  0  0  0  0
    1.1252    3.3354   -1.5613 H   0  0  0  0  0  0  0  0  0  0  0  0
   -0.7749    4.6292   -0.6067 H   0  0  0  0  0  0  0  0  0  0  0  0
   -2.6779    3.4299    0.4224 H   0  0  0  0  0  0  0  0  0  0  0  0
  1  2  2  0
  2  3  1  0
  3  4  1  0
  4  5  2  0
  5  6  1  0
  6  7  1  0
  7  8  2  0
  8  9  1  0
  9 10  1  0
 10 11  1  0
 10 12  1  0
  7 13  1  0
 13 14  2  0
 14 15  1  0
 15 16  2  0
 16 17  1  0
 17 18  2  0
  5 19  1  0
 19 20  2  0
 20 21  1  0
 21 22  2  0
 11  2  1  0
 22  4  1  0
 10  6  1  0
 18 13  1  0
  3 23  1  0
 11 24  1  0
 11 25  1  0
 12 26  1  0
 12 27  1  0
 12 28  1  0
 14 29  1  0
 15 30  1  0
 16 31  1  0
 17 32  1  0
 18 33  1  0
 19 34  1  0
 20 35  1  0
 21 36  1  0
 22 37  1  0
A    1
-0.569643
A    2
0.602382
A    3
-0.430255
A    4
0.141928
A    5
0.110927
A    6
-0.262670
A    7
0.231522
A    8
-0.253566
A    9
-0.177798
A   10
0.424269
A   11
-0.384475
A   12
-0.457757
A   13
0.018249
A   14
-0.116814
A   15
-0.085402
A   16
-0.090665
A   17
-0.087402
A   18
-0.115004
A   19
-0.175066
A   20
-0.094370
A   21
-0.105634
A   22
-0.182097
A   23
0.326415
A   24
0.147441
A   25
0.162957
A   26
0.144766
A   27
0.143051
A   28
0.134903
A   29
0.113708
A   30
0.107705
A   31
0.105071
A   32
0.110189
A   33
0.112254
A   34
0.110116
A   35
0.110849
A   36
0.106085
A   37
0.123833
M  END
$$$$
