
     RDKit          3D

 29 30  0  0  0  0  0  0  0  0999 V2000
    4.1318   -1.0353   -2.2818 Br  0  0  0  0  0  0  0  0  0  0  0  0
    2.4816   -1.0439   -1.3669 C   0  0  0  0  0  0  0  0  0  0  0  0
    2.4445   -0.5955   -0.0397 C   0  0  0  0  0  0  0  0  0  0  0  0
    3.6267   -0.1267    0.4197 O   0  0  0  0  0  0  0  0  0  0  0  0
    3.8815   -0.1837    1.8190 C   0  0  0  0  0  0  0  0  0  0  0  0
    1.2097   -0.5986    0.6228 C   0  0  0  0  0  0  0  0  0  0  0  0
    1.1443   -0.1553    1.8674 F   0  0  0  0  0  0  0  0  0  0  0  0
    0.0438   -1.0481   -0.0009 C   0  0  0  0  0  0  0  0  0  0  0  0
    0.1217   -1.4950   -1.3222 C   0  0  0  0  0  0  0  0  0  0  0  0
    1.3340   -1.4866   -2.0083 C   0  0  0  0  0  0  0  0  0  0  0  0
   -1.2818   -1.0603    0.6983 C   0  0  0  0  0  0  0  0  0  0  0  0
   -2.2686   -0.2387   -0.0453 C   0  0  0  0  0  0  0  0  0  0  0  0
   -3.3193   -0.7225   -0.7172 N   0  0  0  0  0  0  0  0  0  0  0  0
   -3.9767    0.3551   -1.2641 N   0  0  0  0  0  0  0  0  0  0  0  0
   -3.3386    1.5689   -0.9502 C   0  0  0  0  0  0  0  0  0  0  0  0
   -3.6543    2.6867   -1.2725 O   0  0  0  0  0  0  0  0  0  0  0  0
   -2.2517    1.1647   -0.1329 N   0  0  0  0  0  0  0  0  0  0  0  0
   -1.2061    2.0557    0.3305 C   0  0  0  0  0  0  0  0  0  0  0  0
    4.9811   -0.1290    1.8435 H   0  0  0  0  0  0  0  0  0  0  0  0
    3.5445   -1.1188    2.2718 H   0  0  0  0  0  0  0  0  0  0  0  0
    3.4518    0.6937    2.3124 H   0  0  0  0  0  0  0  0  0  0  0  0
   -0.7827   -1.8480   -1.8243 H   0  0  0  0  0  0  0  0  0  0  0  0
    1.3684   -1.8321   -3.0447 H   0  0  0  0  0  0  0  0  0  0  0  0
   -1.6507   -2.1176    0.7746 H   0  0  0  0  0  0  0  0  0  0  0  0
   -1.2259   -0.7161    1.7565 H   0  0  0  0  0  0  0  0  0  0  0  0
   -4.7920    0.1890   -1.8188 H   0  0  0  0  0  0  0  0  0  0  0  0
   -1.4699    3.1055    0.0820 H   0  0  0  0  0  0  0  0  0  0  0  0
   -1.0883    1.9797    1.4274 H   0  0  0  0  0  0  0  0  0  0  0  0
   -0.2365    1.8212   -0.1485 H   0  0  0  0  0  0  0  0  0  0  0  0
  1  2  1  0
  2  3  2  0
  3  4  1  0
  4  5  1  0
  3  6  1  0
  6  7  1  0
  6  8  2  0
  8  9  1  0
  9 10  2  0
  8 11  1  0
 11 12  1  0
 12 13  2  0
 13 14  1  0
 14 15  1  0
 15 16  2  0
 15 17  1  0
 17 18  1  0
 10  2  1  0
 17 12  1  0
  5 19  1  0
  5 20  1  0
  5 21  1  0
  9 22  1  0
 10 23  1  0
 11 24  1  0
 11 25  1  0
 14 26  1  0
 18 27  1  0
 18 28  1  0
 18 29  1  0
A    1
-0.102769
A    2
0.017479
A    3
0.100320
A    4
-0.177978
A    5
-0.129091
A    6
0.124894
A    7
-0.127611
A    8
0.008766
A    9
-0.137826
A   10
-0.136219
A   11
-0.225418
A   12
0.271632
A   13
-0.342852
A   14
-0.287582
A   15
0.575031
A   16
-0.604893
A   17
-0.141333
A   18
-0.194802
A   19
0.109278
A   20
0.104439
A   21
0.095111
A   22
0.123407
A   23
0.128906
A   24
0.137629
A   25
0.121317
A   26
0.337563
A   27
0.129381
A   28
0.114891
A   29
0.108332
M  END
$$$$
