
     RDKit          3D

 26 26  0  0  0  0  0  0  0  0999 V2000
    0.8891    1.3647   -1.4798 S   0  0  0  0  0  0  0  0  0  0  0  0
    0.0388    2.4964   -1.3018 O   0  0  0  0  0  0  0  0  0  0  0  0
    1.2101    0.8149   -2.7568 O   0  0  0  0  0  0  0  0  0  0  0  0
    2.3103    1.7121   -0.7085 O   0  0  0  0  0  0  0  0  0  0  0  0
    3.3992    0.8189   -0.7586 C   0  0  0  0  0  0  0  0  0  0  0  0
    3.5267    0.1886    0.6372 C   0  0  0  0  0  0  0  0  0  0  0  0
    2.2954   -0.2588    1.1505 O   0  0  0  0  0  0  0  0  0  0  0  0
    1.3190   -1.2741    0.2963 S   0  0  0  0  0  0  0  0  0  0  0  0
    2.1171   -1.8374   -0.7499 O   0  0  0  0  0  0  0  0  0  0  0  0
    0.5600   -2.0567    1.2144 O   0  0  0  0  0  0  0  0  0  0  0  0
    0.1763   -0.0265   -0.4652 C   0  0  0  0  0  0  0  0  0  0  0  0
   -0.5654   -0.7345   -1.3441 F   0  0  0  0  0  0  0  0  0  0  0  0
   -0.7332    0.5549    0.6030 C   0  0  0  0  0  0  0  0  0  0  0  0
   -0.3738    1.1518    1.5823 O   0  0  0  0  0  0  0  0  0  0  0  0
   -2.0164    0.3004    0.2940 O   0  0  0  0  0  0  0  0  0  0  0  0
   -2.9927    0.8209    1.2239 C   0  0  0  0  0  0  0  0  0  0  0  0
   -4.3177    0.3837    0.6279 C   0  0  0  0  0  0  0  0  0  0  0  0
    3.3187    0.0770   -1.5812 H   0  0  0  0  0  0  0  0  0  0  0  0
    4.2726    1.4697   -0.9766 H   0  0  0  0  0  0  0  0  0  0  0  0
    4.2576   -0.6417    0.6460 H   0  0  0  0  0  0  0  0  0  0  0  0
    3.8031    0.9487    1.4027 H   0  0  0  0  0  0  0  0  0  0  0  0
   -2.8756    1.9184    1.2693 H   0  0  0  0  0  0  0  0  0  0  0  0
   -2.7949    0.3809    2.2172 H   0  0  0  0  0  0  0  0  0  0  0  0
   -4.4569    0.7933   -0.3826 H   0  0  0  0  0  0  0  0  0  0  0  0
   -5.1598    0.7168    1.2463 H   0  0  0  0  0  0  0  0  0  0  0  0
   -4.3756   -0.7100    0.5375 H   0  0  0  0  0  0  0  0  0  0  0  0
  1  2  2  0
  1  3  2  0
  1  4  1  0
  4  5  1  0
  5  6  1  0
  6  7  1  0
  7  8  1  0
  8  9  2  0
  8 10  2  0
  8 11  1  0
 11 12  1  0
 11 13  1  0
 13 14  2  0
 13 15  1  0
 15 16  1  0
 16 17  1  0
 11  1  1  0
  5 18  1  0
  5 19  1  0
  6 20  1  0
  6 21  1  0
 16 22  1  0
 16 23  1  0
 17 24  1  0
 17 25  1  0
 17 26  1  0
A    1
1.120823
A    2
-0.474729
A    3
-0.499877
A    4
-0.313661
A    5
0.017401
A    6
0.045156
A    7
-0.326814
A    8
1.131496
A    9
-0.514194
A   10
-0.470207
A   11
-0.133888
A   12
-0.086126
A   13
0.520784
A   14
-0.468437
A   15
-0.248984
A   16
0.127135
A   17
-0.367884
A   18
0.097245
A   19
0.114386
A   20
0.098137
A   21
0.110403
A   22
0.076226
A   23
0.079822
A   24
0.121035
A   25
0.122982
A   26
0.121771
M  END
$$$$
