
     RDKit          3D

 43 45  0  0  0  0  0  0  0  0999 V2000
    1.1775    2.0311   -1.2577 O   0  0  0  0  0  0  0  0  0  0  0  0
    1.0819    0.7915   -0.6191 C   0  0  0  0  0  0  0  0  0  0  0  0
    2.2315    0.5127    0.4281 C   0  0  0  0  0  0  0  0  0  0  0  0
    1.1239    0.3252    1.5186 C   0  0  0  0  0  0  0  0  0  0  0  0
    0.0558    0.9023    0.5480 C   0  0  0  0  0  0  0  0  0  0  0  0
   -1.2775    0.1969    0.3828 C   0  0  0  0  0  0  0  0  0  0  0  0
   -1.2179   -1.2291   -0.2877 C   0  0  0  0  0  0  0  0  0  0  0  0
   -2.2952   -1.1828   -1.3561 C   0  0  0  0  0  0  0  0  0  0  0  0
   -2.7895    0.0420   -1.5440 C   0  0  0  0  0  0  0  0  0  0  0  0
   -2.1509    1.0463   -0.6243 C   0  0  0  0  0  0  0  0  0  0  0  0
   -3.1145    1.8483    0.0151 O   0  0  0  0  0  0  0  0  0  0  0  0
    0.1266   -1.5175   -0.9829 C   0  0  0  0  0  0  0  0  0  0  0  0
    0.7092   -0.2717   -1.6539 C   0  0  0  0  0  0  0  0  0  0  0  0
    1.9135   -0.5893   -2.3296 O   0  0  0  0  0  0  0  0  0  0  0  0
   -1.5076   -2.3842    0.6753 C   0  0  0  0  0  0  0  0  0  0  0  0
   -1.9497    0.1455    1.7692 C   0  0  0  0  0  0  0  0  0  0  0  0
   -1.9657    1.4119    2.3888 O   0  0  0  0  0  0  0  0  0  0  0  0
    3.1258   -0.6849    0.1944 C   0  0  0  0  0  0  0  0  0  0  0  0
    3.0717    1.7595    0.6698 C   0  0  0  0  0  0  0  0  0  0  0  0
    1.9331    2.0253   -1.8848 H   0  0  0  0  0  0  0  0  0  0  0  0
    1.2657    0.9104    2.4295 H   0  0  0  0  0  0  0  0  0  0  0  0
    0.9588   -0.7135    1.8075 H   0  0  0  0  0  0  0  0  0  0  0  0
   -0.1337    1.9761    0.7910 H   0  0  0  0  0  0  0  0  0  0  0  0
   -2.5664   -2.0867   -1.8719 H   0  0  0  0  0  0  0  0  0  0  0  0
   -3.5458    0.3594   -2.2385 H   0  0  0  0  0  0  0  0  0  0  0  0
   -1.5349    1.8046   -1.1660 H   0  0  0  0  0  0  0  0  0  0  0  0
   -3.8750    1.3142    0.3267 H   0  0  0  0  0  0  0  0  0  0  0  0
    0.0027   -2.3261   -1.7264 H   0  0  0  0  0  0  0  0  0  0  0  0
    0.8555   -1.9122   -0.2443 H   0  0  0  0  0  0  0  0  0  0  0  0
   -0.0006    0.1577   -2.4007 H   0  0  0  0  0  0  0  0  0  0  0  0
    1.7452   -1.2175   -3.0563 H   0  0  0  0  0  0  0  0  0  0  0  0
   -2.5269   -2.3416    1.0753 H   0  0  0  0  0  0  0  0  0  0  0  0
   -1.4092   -3.3535    0.1706 H   0  0  0  0  0  0  0  0  0  0  0  0
   -0.8111   -2.3903    1.5219 H   0  0  0  0  0  0  0  0  0  0  0  0
   -1.3682   -0.4654    2.4860 H   0  0  0  0  0  0  0  0  0  0  0  0
   -2.9853   -0.2322    1.7130 H   0  0  0  0  0  0  0  0  0  0  0  0
   -2.3316    2.0795    1.7620 H   0  0  0  0  0  0  0  0  0  0  0  0
    3.6923   -0.5734   -0.7419 H   0  0  0  0  0  0  0  0  0  0  0  0
    3.8462   -0.8084    1.0109 H   0  0  0  0  0  0  0  0  0  0  0  0
    2.5668   -1.6229    0.1055 H   0  0  0  0  0  0  0  0  0  0  0  0
    3.7645    1.9407   -0.1593 H   0  0  0  0  0  0  0  0  0  0  0  0
    3.6646    1.6668    1.5860 H   0  0  0  0  0  0  0  0  0  0  0  0
    2.4434    2.6563    0.7681 H   0  0  0  0  0  0  0  0  0  0  0  0
  1  2  1  0
  2  3  1  0
  3  4  1  0
  4  5  1  0
  5  6  1  0
  6  7  1  0
  7  8  1  0
  8  9  2  0
  9 10  1  0
 10 11  1  0
  7 12  1  0
 12 13  1  0
 13 14  1  0
  7 15  1  0
  6 16  1  0
 16 17  1  0
  3 18  1  0
  3 19  1  0
 13  2  1  0
  5  2  1  0
 10  6  1  0
  1 20  1  0
  4 21  1  0
  4 22  1  0
  5 23  1  0
  8 24  1  0
  9 25  1  0
 10 26  1  0
 11 27  1  0
 12 28  1  0
 12 29  1  0
 13 30  1  0
 14 31  1  0
 15 32  1  0
 15 33  1  0
 15 34  1  0
 16 35  1  0
 16 36  1  0
 17 37  1  0
 18 38  1  0
 18 39  1  0
 18 40  1  0
 19 41  1  0
 19 42  1  0
 19 43  1  0
A    1
-0.564134
A    2
0.208395
A    3
0.166970
A    4
-0.229855
A    5
-0.088694
A    6
-0.043847
A    7
0.158137
A    8
-0.131263
A    9
-0.218350
A   10
0.216128
A   11
-0.537791
A   12
-0.250061
A   13
0.182061
A   14
-0.547261
A   15
-0.386109
A   16
0.089205
A   17
-0.555383
A   18
-0.377467
A   19
-0.371992
A   20
0.371213
A   21
0.089473
A   22
0.087321
A   23
0.081790
A   24
0.114873
A   25
0.124958
A   26
0.056214
A   27
0.372565
A   28
0.088653
A   29
0.088172
A   30
0.029163
A   31
0.370319
A   32
0.107564
A   33
0.114248
A   34
0.109336
A   35
0.068371
A   36
0.029571
A   37
0.352429
A   38
0.104486
A   39
0.099811
A   40
0.099337
A   41
0.104215
A   42
0.108129
A   43
0.109100
M  END
$$$$
