
     RDKit          3D

 42 43  0  0  0  0  0  0  0  0999 V2000
    2.2995   -0.3804    1.5047 O   0  0  0  0  0  0  0  0  0  0  0  0
    2.3496    0.0060    0.3503 C   0  0  0  0  0  0  0  0  0  0  0  0
    1.2802    0.6529   -0.2151 N   0  0  0  0  0  0  0  0  0  0  0  0
    0.1092    0.9643    0.6144 C   0  0  0  0  0  0  0  0  0  0  0  0
   -1.0766    0.0785    0.1934 C   0  0  0  0  0  0  0  0  0  0  0  0
   -2.3216    0.4378    1.0217 C   0  0  0  0  0  0  0  0  0  0  0  0
   -3.5015   -0.2314    0.4877 N   0  0  0  0  0  0  0  0  0  0  0  0
   -3.8895   -1.4229    1.0151 N   0  0  0  0  0  0  0  0  0  0  0  0
   -4.9398   -1.8499    0.2654 C   0  0  0  0  0  0  0  0  0  0  0  0
   -5.2111   -0.9096   -0.7757 C   0  0  0  0  0  0  0  0  0  0  0  0
   -4.2687    0.1115   -0.6171 C   0  0  0  0  0  0  0  0  0  0  0  0
   -4.0690    1.3480   -1.3933 C   0  0  0  0  0  0  0  0  0  0  0  0
   -5.6489   -3.1121    0.5500 C   0  0  0  0  0  0  0  0  0  0  0  0
    1.3378    1.2810   -1.5339 C   0  0  0  0  0  0  0  0  0  0  0  0
    3.5665   -0.2990   -0.5179 C   0  0  0  0  0  0  0  0  0  0  0  0
    3.9320    0.9044   -1.2497 O   0  0  0  0  0  0  0  0  0  0  0  0
    5.1796    1.3234   -0.8740 N   0  0  0  0  0  0  0  0  0  0  0  0
    5.7163    0.5138   -0.0116 C   0  0  0  0  0  0  0  0  0  0  0  0
    4.8020   -0.6489    0.3266 C   0  0  0  0  0  0  0  0  0  0  0  0
    7.0502    0.6840    0.5956 C   0  0  0  0  0  0  0  0  0  0  0  0
    0.3548    0.7834    1.6920 H   0  0  0  0  0  0  0  0  0  0  0  0
   -0.1437    2.0429    0.5192 H   0  0  0  0  0  0  0  0  0  0  0  0
   -1.2806    0.1809   -0.8877 H   0  0  0  0  0  0  0  0  0  0  0  0
   -0.8220   -0.9928    0.3401 H   0  0  0  0  0  0  0  0  0  0  0  0
   -2.5043    1.5367    1.0199 H   0  0  0  0  0  0  0  0  0  0  0  0
   -2.1777    0.1250    2.0874 H   0  0  0  0  0  0  0  0  0  0  0  0
   -5.9773   -0.9823   -1.5093 H   0  0  0  0  0  0  0  0  0  0  0  0
   -3.0903    1.3670   -1.8973 H   0  0  0  0  0  0  0  0  0  0  0  0
   -4.1380    2.2487   -0.7630 H   0  0  0  0  0  0  0  0  0  0  0  0
   -4.8357    1.4504   -2.1793 H   0  0  0  0  0  0  0  0  0  0  0  0
   -5.2075   -3.6476    1.4069 H   0  0  0  0  0  0  0  0  0  0  0  0
   -6.7080   -2.9291    0.7884 H   0  0  0  0  0  0  0  0  0  0  0  0
   -5.6143   -3.7918   -0.3153 H   0  0  0  0  0  0  0  0  0  0  0  0
    1.7876    0.6001   -2.2792 H   0  0  0  0  0  0  0  0  0  0  0  0
    0.3252    1.5341   -1.8918 H   0  0  0  0  0  0  0  0  0  0  0  0
    1.9384    2.2109   -1.5115 H   0  0  0  0  0  0  0  0  0  0  0  0
    3.3244   -1.0599   -1.2863 H   0  0  0  0  0  0  0  0  0  0  0  0
    5.2454   -1.6217    0.0585 H   0  0  0  0  0  0  0  0  0  0  0  0
    4.5759   -0.7010    1.4132 H   0  0  0  0  0  0  0  0  0  0  0  0
    7.5759    1.5717    0.2036 H   0  0  0  0  0  0  0  0  0  0  0  0
    6.9787    0.8095    1.6889 H   0  0  0  0  0  0  0  0  0  0  0  0
    7.6970   -0.1864    0.4043 H   0  0  0  0  0  0  0  0  0  0  0  0
  1  2  2  0
  2  3  1  0
  3  4  1  0
  4  5  1  0
  5  6  1  0
  6  7  1  0
  7  8  1  0
  8  9  2  0
  9 10  1  0
 10 11  2  0
 11 12  1  0
  9 13  1  0
  3 14  1  0
  2 15  1  0
 15 16  1  0
 16 17  1  0
 17 18  2  0
 18 19  1  0
 18 20  1  0
 11  7  1  0
 19 15  1  0
  4 21  1  0
  4 22  1  0
  5 23  1  0
  5 24  1  0
  6 25  1  0
  6 26  1  0
 10 27  1  0
 12 28  1  0
 12 29  1  0
 12 30  1  0
 13 31  1  0
 13 32  1  0
 13 33  1  0
 14 34  1  0
 14 35  1  0
 14 36  1  0
 15 37  1  0
 19 38  1  0
 19 39  1  0
 20 40  1  0
 20 41  1  0
 20 42  1  0
A    1
-0.552778
A    2
0.440041
A    3
-0.119328
A    4
-0.024715
A    5
-0.179741
A    6
-0.037806
A    7
0.099508
A    8
-0.417198
A    9
0.247851
A   10
-0.392799
A   11
0.179068
A   12
-0.387396
A   13
-0.376730
A   14
-0.223036
A   15
0.086154
A   16
-0.159478
A   17
-0.277927
A   18
0.280367
A   19
-0.260194
A   20
-0.397492
A   21
0.091096
A   22
0.073840
A   23
0.079456
A   24
0.095988
A   25
0.079747
A   26
0.098114
A   27
0.148275
A   28
0.121314
A   29
0.126031
A   30
0.140014
A   31
0.124762
A   32
0.120688
A   33
0.121095
A   34
0.108745
A   35
0.108686
A   36
0.103960
A   37
0.082288
A   38
0.118048
A   39
0.123599
A   40
0.133405
A   41
0.138225
A   42
0.136250
M  END
$$$$
