
     RDKit          3D

 33 34  0  0  0  0  0  0  0  0999 V2000
    2.3054    1.3291    2.1329 S   0  0  0  0  0  0  0  0  0  0  0  0
    2.4827   -0.2106    1.3101 C   0  0  0  0  0  0  0  0  0  0  0  0
    1.6171   -0.5791    0.2788 C   0  0  0  0  0  0  0  0  0  0  0  0
    1.8346   -1.7705   -0.4239 C   0  0  0  0  0  0  0  0  0  0  0  0
    2.8757   -2.6118   -0.0540 C   0  0  0  0  0  0  0  0  0  0  0  0
    3.7057   -2.2672    1.0172 C   0  0  0  0  0  0  0  0  0  0  0  0
    3.5183   -1.0676    1.6939 C   0  0  0  0  0  0  0  0  0  0  0  0
    0.4894    0.3111   -0.0791 C   0  0  0  0  0  0  0  0  0  0  0  0
   -0.6888   -0.2921   -0.2389 N   0  0  0  0  0  0  0  0  0  0  0  0
   -2.0680    0.3041   -0.3519 C   0  0  0  0  0  0  0  0  0  0  0  0
   -3.0178   -0.8328    0.0913 C   0  0  0  0  0  0  0  0  0  0  0  0
   -2.3711    0.6909   -1.7987 C   0  0  0  0  0  0  0  0  0  0  0  0
   -2.2234    1.4804    0.6117 C   0  0  0  0  0  0  0  0  0  0  0  0
    0.7396    1.7034   -0.1574 C   0  0  0  0  0  0  0  0  0  0  0  0
    0.3189    2.4200   -1.3057 N   0  0  0  0  0  0  0  0  0  0  0  0
    0.1021    1.7564   -2.3215 O   0  0  0  0  0  0  0  0  0  0  0  0
    0.1969    3.6301   -1.2716 O   0  0  0  0  0  0  0  0  0  0  0  0
    1.4794    2.4077    0.8445 C   0  0  0  0  0  0  0  0  0  0  0  0
    1.6117    3.5814    1.0049 O   0  0  0  0  0  0  0  0  0  0  0  0
    1.2101   -2.0300   -1.2789 H   0  0  0  0  0  0  0  0  0  0  0  0
    3.0522   -3.5370   -0.6008 H   0  0  0  0  0  0  0  0  0  0  0  0
    4.5143   -2.9373    1.3116 H   0  0  0  0  0  0  0  0  0  0  0  0
    4.1928   -0.7983    2.5102 H   0  0  0  0  0  0  0  0  0  0  0  0
   -0.6991   -1.3171   -0.2717 H   0  0  0  0  0  0  0  0  0  0  0  0
   -2.9906   -1.6902   -0.5894 H   0  0  0  0  0  0  0  0  0  0  0  0
   -2.7975   -1.1857    1.1055 H   0  0  0  0  0  0  0  0  0  0  0  0
   -4.0565   -0.4759    0.1044 H   0  0  0  0  0  0  0  0  0  0  0  0
   -3.4219    0.5198   -2.0552 H   0  0  0  0  0  0  0  0  0  0  0  0
   -2.1716    1.7556   -2.0018 H   0  0  0  0  0  0  0  0  0  0  0  0
   -1.7598    0.1362   -2.5242 H   0  0  0  0  0  0  0  0  0  0  0  0
   -3.2676    1.8172    0.6452 H   0  0  0  0  0  0  0  0  0  0  0  0
   -1.6311    2.3604    0.3202 H   0  0  0  0  0  0  0  0  0  0  0  0
   -1.9262    1.2230    1.6356 H   0  0  0  0  0  0  0  0  0  0  0  0
  1  2  1  0
  2  3  2  0
  3  4  1  0
  4  5  2  0
  5  6  1  0
  6  7  2  0
  3  8  1  0
  8  9  1  0
  9 10  1  0
 10 11  1  0
 10 12  1  0
 10 13  1  0
  8 14  2  0
 14 15  1  0
 15 16  1  0
 15 17  2  0
 14 18  1  0
 18 19  2  0
 18  1  1  0
  7  2  1  0
  4 20  1  0
  5 21  1  0
  6 22  1  0
  7 23  1  0
  9 24  1  0
 11 25  1  0
 11 26  1  0
 11 27  1  0
 12 28  1  0
 12 29  1  0
 12 30  1  0
 13 31  1  0
 13 32  1  0
 13 33  1  0
M  CHG  2  15   1  16  -1
A    1
-0.128378
A    2
0.055788
A    3
-0.049644
A    4
-0.112248
A    5
-0.099108
A    6
-0.071113
A    7
-0.125648
A    8
0.294754
A    9
-0.294592
A   10
0.399358
A   11
-0.425427
A   12
-0.420769
A   13
-0.421912
A   14
-0.247479
A   15
0.598961
A   16
-0.438614
A   17
-0.401689
A   18
0.373955
A   19
-0.421967
A   20
0.118761
A   21
0.114882
A   22
0.115701
A   23
0.123968
A   24
0.297527
A   25
0.127552
A   26
0.126408
A   27
0.138621
A   28
0.124865
A   29
0.126779
A   30
0.132469
A   31
0.143017
A   32
0.116962
A   33
0.128261
M  END
$$$$
