
     RDKit          3D

 38 38  0  0  0  0  0  0  0  0999 V2000
    4.6955    1.8153    0.5753 C   0  0  0  0  0  0  0  0  0  0  0  0
    3.5154    0.8406    0.5579 C   0  0  0  0  0  0  0  0  0  0  0  0
    4.0354   -0.5969    0.5477 C   0  0  0  0  0  0  0  0  0  0  0  0
    2.6524    1.0980   -0.6758 C   0  0  0  0  0  0  0  0  0  0  0  0
    2.5434    1.1318    2.0780 S   0  0  0  0  0  0  0  0  0  0  0  0
    1.7812    2.3448    1.9318 O   0  0  0  0  0  0  0  0  0  0  0  0
    3.4101    0.9275    3.2134 O   0  0  0  0  0  0  0  0  0  0  0  0
    1.3599   -0.2503    2.1649 C   0  0  0  0  0  0  0  0  0  0  0  0
    1.5831   -1.2132    3.1741 C   0  0  0  0  0  0  0  0  0  0  0  0
    1.7624   -2.0123    3.9926 N   0  0  0  0  0  0  0  0  0  0  0  0
    0.4005   -0.1890    1.2934 N   0  0  0  0  0  0  0  0  0  0  0  0
   -0.5463   -1.1230    1.2203 N   0  0  0  0  0  0  0  0  0  0  0  0
   -1.6010   -0.9155    0.2969 C   0  0  0  0  0  0  0  0  0  0  0  0
   -2.5901   -1.9108    0.2311 C   0  0  0  0  0  0  0  0  0  0  0  0
   -3.6406   -1.7612   -0.6676 C   0  0  0  0  0  0  0  0  0  0  0  0
   -3.7099   -0.6359   -1.4883 C   0  0  0  0  0  0  0  0  0  0  0  0
   -5.0418   -0.4537   -2.6123 S   0  0  0  0  0  0  0  0  0  0  0  0
   -6.2075    0.4937   -1.7400 N   0  0  0  0  0  0  0  0  0  0  0  0
   -4.6075    0.3778   -3.7099 O   0  0  0  0  0  0  0  0  0  0  0  0
   -5.6546   -1.7460   -2.8107 O   0  0  0  0  0  0  0  0  0  0  0  0
   -2.7173    0.3427   -1.4246 C   0  0  0  0  0  0  0  0  0  0  0  0
   -1.6600    0.2135   -0.5322 C   0  0  0  0  0  0  0  0  0  0  0  0
    5.3369    1.6853    1.4610 H   0  0  0  0  0  0  0  0  0  0  0  0
    5.3404    1.6655   -0.3002 H   0  0  0  0  0  0  0  0  0  0  0  0
    4.3752    2.8666    0.5505 H   0  0  0  0  0  0  0  0  0  0  0  0
    4.6438   -0.8314    1.4351 H   0  0  0  0  0  0  0  0  0  0  0  0
    4.6865   -0.7667   -0.3217 H   0  0  0  0  0  0  0  0  0  0  0  0
    3.2364   -1.3444    0.4803 H   0  0  0  0  0  0  0  0  0  0  0  0
    1.8299    0.3796   -0.7838 H   0  0  0  0  0  0  0  0  0  0  0  0
    3.2509    1.0234   -1.5933 H   0  0  0  0  0  0  0  0  0  0  0  0
    2.2065    2.1052   -0.6728 H   0  0  0  0  0  0  0  0  0  0  0  0
   -0.6152   -1.8806    1.9000 H   0  0  0  0  0  0  0  0  0  0  0  0
   -2.5428   -2.7909    0.8669 H   0  0  0  0  0  0  0  0  0  0  0  0
   -4.4067   -2.5469   -0.7237 H   0  0  0  0  0  0  0  0  0  0  0  0
   -7.0646    0.0323   -1.4836 H   0  0  0  0  0  0  0  0  0  0  0  0
   -6.3967    1.4165   -2.0954 H   0  0  0  0  0  0  0  0  0  0  0  0
   -2.7525    1.2232   -2.0797 H   0  0  0  0  0  0  0  0  0  0  0  0
   -0.8907    0.9858   -0.4699 H   0  0  0  0  0  0  0  0  0  0  0  0
  1  2  1  0
  2  3  1  0
  2  4  1  0
  2  5  1  0
  5  6  2  0
  5  7  2  0
  5  8  1  0
  8  9  1  0
  9 10  3  0
  8 11  2  3
 11 12  1  0
 12 13  1  0
 13 14  2  0
 14 15  1  0
 15 16  2  0
 16 17  1  0
 17 18  1  0
 17 19  2  0
 17 20  2  0
 16 21  1  0
 21 22  2  0
 22 13  1  0
  1 23  1  0
  1 24  1  0
  1 25  1  0
  3 26  1  0
  3 27  1  0
  3 28  1  0
  4 29  1  0
  4 30  1  0
  4 31  1  0
 12 32  1  0
 14 33  1  0
 15 34  1  0
 18 35  1  0
 18 36  1  0
 21 37  1  0
 22 38  1  0
A    1
-0.382538
A    2
0.151020
A    3
-0.392223
A    4
-0.390162
A    5
0.985414
A    6
-0.549816
A    7
-0.559585
A    8
-0.070561
A    9
0.258155
A   10
-0.376108
A   11
-0.057800
A   12
-0.145653
A   13
0.216505
A   14
-0.186099
A   15
-0.054981
A   16
-0.135125
A   17
1.233175
A   18
-0.815970
A   19
-0.594076
A   20
-0.592881
A   21
-0.051871
A   22
-0.170554
A   23
0.126372
A   24
0.136944
A   25
0.126121
A   26
0.128907
A   27
0.137959
A   28
0.114736
A   29
0.109567
A   30
0.133941
A   31
0.126398
A   32
0.290707
A   33
0.139365
A   34
0.129592
A   35
0.361945
A   36
0.356217
A   37
0.131097
A   38
0.131866
M  END
$$$$
