
     RDKit          3D

 37 40  0  0  0  0  0  0  0  0999 V2000
   -0.8145    3.2120    1.4765 N   0  0  0  0  0  0  0  0  0  0  0  0
   -0.6881    2.0120    0.8685 C   0  0  0  0  0  0  0  0  0  0  0  0
    0.4795    1.5054    0.2913 N   0  0  0  0  0  0  0  0  0  0  0  0
    0.2018    0.2357   -0.2092 C   0  0  0  0  0  0  0  0  0  0  0  0
   -1.1460   -0.0722    0.0100 C   0  0  0  0  0  0  0  0  0  0  0  0
   -1.7326    1.0363    0.7105 C   0  0  0  0  0  0  0  0  0  0  0  0
   -2.9770    1.3464    1.2609 C   0  0  0  0  0  0  0  0  0  0  0  0
   -3.1222    2.5741    1.8888 C   0  0  0  0  0  0  0  0  0  0  0  0
   -2.0311    3.4728    1.9707 C   0  0  0  0  0  0  0  0  0  0  0  0
   -1.8053   -1.2893   -0.3841 C   0  0  0  0  0  0  0  0  0  0  0  0
   -1.2113   -2.4186   -0.6642 N   0  0  0  0  0  0  0  0  0  0  0  0
   -2.2149   -3.4210   -1.0530 C   0  0  0  0  0  0  0  0  0  0  0  0
   -3.5924   -2.6832   -0.9736 C   0  0  0  0  0  0  0  0  0  0  0  0
   -3.2357   -1.3339   -0.4557 N   0  0  0  0  0  0  0  0  0  0  0  0
    1.2367   -0.5865   -0.8785 C   0  0  0  0  0  0  0  0  0  0  0  0
    2.6303   -0.1470   -0.5533 C   0  0  0  0  0  0  0  0  0  0  0  0
    3.3571    0.6243   -1.4613 C   0  0  0  0  0  0  0  0  0  0  0  0
    4.6491    1.0384   -1.1437 C   0  0  0  0  0  0  0  0  0  0  0  0
    5.2164    0.6846    0.0790 C   0  0  0  0  0  0  0  0  0  0  0  0
    4.4905   -0.0871    0.9857 C   0  0  0  0  0  0  0  0  0  0  0  0
    3.1999   -0.5041    0.6713 C   0  0  0  0  0  0  0  0  0  0  0  0
    1.3697    1.9620    0.2887 H   0  0  0  0  0  0  0  0  0  0  0  0
   -3.7983    0.6317    1.2098 H   0  0  0  0  0  0  0  0  0  0  0  0
   -4.0730    2.8569    2.3310 H   0  0  0  0  0  0  0  0  0  0  0  0
   -2.1421    4.4456    2.4633 H   0  0  0  0  0  0  0  0  0  0  0  0
   -2.1655   -4.2782   -0.3540 H   0  0  0  0  0  0  0  0  0  0  0  0
   -1.9879   -3.7992   -2.0666 H   0  0  0  0  0  0  0  0  0  0  0  0
   -4.2729   -3.1637   -0.2442 H   0  0  0  0  0  0  0  0  0  0  0  0
   -4.1021   -2.6405   -1.9496 H   0  0  0  0  0  0  0  0  0  0  0  0
   -3.7056   -0.5523   -0.8834 H   0  0  0  0  0  0  0  0  0  0  0  0
    1.0528   -0.5974   -1.9795 H   0  0  0  0  0  0  0  0  0  0  0  0
    1.0887   -1.6672   -0.5919 H   0  0  0  0  0  0  0  0  0  0  0  0
    2.9194    0.9011   -2.4185 H   0  0  0  0  0  0  0  0  0  0  0  0
    5.2166    1.6384   -1.8523 H   0  0  0  0  0  0  0  0  0  0  0  0
    6.2250    1.0087    0.3256 H   0  0  0  0  0  0  0  0  0  0  0  0
    4.9342   -0.3641    1.9403 H   0  0  0  0  0  0  0  0  0  0  0  0
    2.6323   -1.1083    1.3792 H   0  0  0  0  0  0  0  0  0  0  0  0
  1  2  2  0
  2  3  1  0
  3  4  1  0
  4  5  2  0
  5  6  1  0
  6  7  2  0
  7  8  1  0
  8  9  2  0
  5 10  1  0
 10 11  2  0
 11 12  1  0
 12 13  1  0
 13 14  1  0
  4 15  1  0
 15 16  1  0
 16 17  2  0
 17 18  1  0
 18 19  2  0
 19 20  1  0
 20 21  2  0
  9  1  1  0
  6  2  1  0
 14 10  1  0
 21 16  1  0
  3 22  1  0
  7 23  1  0
  8 24  1  0
  9 25  1  0
 12 26  1  0
 12 27  1  0
 13 28  1  0
 13 29  1  0
 14 30  1  0
 15 31  1  0
 15 32  1  0
 17 33  1  0
 18 34  1  0
 19 35  1  0
 20 36  1  0
 21 37  1  0
A    1
-0.414713
A    2
0.312314
A    3
-0.348875
A    4
0.238025
A    5
-0.213719
A    6
-0.046937
A    7
-0.079592
A    8
-0.181052
A    9
0.085942
A   10
0.382385
A   11
-0.484340
A   12
0.001760
A   13
-0.000168
A   14
-0.431350
A   15
-0.242548
A   16
0.109769
A   17
-0.159447
A   18
-0.093677
A   19
-0.111264
A   20
-0.092924
A   21
-0.150297
A   22
0.319986
A   23
0.104880
A   24
0.114261
A   25
0.083583
A   26
0.069678
A   27
0.066350
A   28
0.057983
A   29
0.065593
A   30
0.274076
A   31
0.115380
A   32
0.108441
A   33
0.110038
A   34
0.104376
A   35
0.105798
A   36
0.104653
A   37
0.115634
M  END
$$$$
