
     RDKit          3D

 37 38  0  0  0  0  0  0  0  0999 V2000
    1.7309   -2.3467   -1.0029 O   0  0  0  0  0  0  0  0  0  0  0  0
    0.9145   -1.7908   -0.3013 C   0  0  0  0  0  0  0  0  0  0  0  0
    1.2348   -0.9584    0.7329 N   0  0  0  0  0  0  0  0  0  0  0  0
    2.6229   -0.5584    0.9770 C   0  0  0  0  0  0  0  0  0  0  0  0
    2.7844    0.9739    0.8200 C   0  0  0  0  0  0  0  0  0  0  0  0
    4.1667    1.3801    1.3387 C   0  0  0  0  0  0  0  0  0  0  0  0
    2.6191    1.3875   -0.6438 C   0  0  0  0  0  0  0  0  0  0  0  0
   -0.5964   -2.0022   -0.5831 C   0  0  0  0  0  0  0  0  0  0  0  0
   -0.9740   -0.9441   -1.4832 O   0  0  0  0  0  0  0  0  0  0  0  0
   -1.8532   -0.1248   -0.7849 C   0  0  0  0  0  0  0  0  0  0  0  0
   -2.1685   -0.5822    0.4013 N   0  0  0  0  0  0  0  0  0  0  0  0
   -1.4423   -1.7503    0.6196 N   0  0  0  0  0  0  0  0  0  0  0  0
   -2.0963   -2.8362    1.2871 C   0  0  0  0  0  0  0  0  0  0  0  0
   -1.6779   -3.9421    1.0527 O   0  0  0  0  0  0  0  0  0  0  0  0
   -3.1425   -2.4841    2.2843 C   0  0  0  0  0  0  0  0  0  0  0  0
   -2.2405    1.0668   -1.4678 C   0  0  0  0  0  0  0  0  0  0  0  0
   -3.1369    1.8899   -0.7936 O   0  0  0  0  0  0  0  0  0  0  0  0
   -3.3512    2.9640   -1.6220 C   0  0  0  0  0  0  0  0  0  0  0  0
   -2.6286    2.8462   -2.7827 C   0  0  0  0  0  0  0  0  0  0  0  0
   -1.9039    1.6114   -2.6847 C   0  0  0  0  0  0  0  0  0  0  0  0
    0.5129   -0.5171    1.2818 H   0  0  0  0  0  0  0  0  0  0  0  0
    3.3027   -1.0942    0.2719 H   0  0  0  0  0  0  0  0  0  0  0  0
    2.9104   -0.8764    2.0044 H   0  0  0  0  0  0  0  0  0  0  0  0
    2.0026    1.4862    1.4309 H   0  0  0  0  0  0  0  0  0  0  0  0
    4.2926    1.1320    2.3979 H   0  0  0  0  0  0  0  0  0  0  0  0
    4.3240    2.4600    1.2362 H   0  0  0  0  0  0  0  0  0  0  0  0
    4.9693    0.8828    0.7817 H   0  0  0  0  0  0  0  0  0  0  0  0
    1.6412    1.0855   -1.0372 H   0  0  0  0  0  0  0  0  0  0  0  0
    3.3778    0.9212   -1.2839 H   0  0  0  0  0  0  0  0  0  0  0  0
    2.7039    2.4719   -0.7655 H   0  0  0  0  0  0  0  0  0  0  0  0
   -0.7874   -2.9738   -1.0956 H   0  0  0  0  0  0  0  0  0  0  0  0
   -2.7688   -1.7574    3.0256 H   0  0  0  0  0  0  0  0  0  0  0  0
   -3.4913   -3.3768    2.8252 H   0  0  0  0  0  0  0  0  0  0  0  0
   -4.0152   -2.0068    1.8062 H   0  0  0  0  0  0  0  0  0  0  0  0
   -4.0299    3.6804   -1.2155 H   0  0  0  0  0  0  0  0  0  0  0  0
   -2.5919    3.5218   -3.6126 H   0  0  0  0  0  0  0  0  0  0  0  0
   -1.2362    1.2081   -3.4236 H   0  0  0  0  0  0  0  0  0  0  0  0
  1  2  2  0
  2  3  1  0
  3  4  1  0
  4  5  1  0
  5  6  1  0
  5  7  1  0
  2  8  1  0
  8  9  1  0
  9 10  1  0
 10 11  2  0
 11 12  1  0
 12 13  1  0
 13 14  2  0
 13 15  1  0
 10 16  1  0
 16 17  1  0
 17 18  1  0
 18 19  2  0
 19 20  1  0
 12  8  1  0
 16 20  2  0
  3 21  1  0
  4 22  1  0
  4 23  1  0
  5 24  1  0
  6 25  1  0
  6 26  1  0
  6 27  1  0
  7 28  1  0
  7 29  1  0
  7 30  1  0
  8 31  1  0
 15 32  1  0
 15 33  1  0
 15 34  1  0
 18 35  1  0
 19 36  1  0
 20 37  1  0
A    1
-0.545404
A    2
0.477902
A    3
-0.393519
A    4
0.000529
A    5
0.097716
A    6
-0.368339
A    7
-0.359748
A    8
0.152956
A    9
-0.261849
A   10
0.302112
A   11
-0.350997
A   12
-0.116627
A   13
0.591533
A   14
-0.526424
A   15
-0.474033
A   16
0.102037
A   17
-0.132682
A   18
0.062892
A   19
-0.197263
A   20
-0.174199
A   21
0.284921
A   22
0.087909
A   23
0.067283
A   24
0.046869
A   25
0.101706
A   26
0.106988
A   27
0.108861
A   28
0.095594
A   29
0.108159
A   30
0.104708
A   31
0.095087
A   32
0.158304
A   33
0.157442
A   34
0.155703
A   35
0.122747
A   36
0.152025
A   37
0.159103
M  END
$$$$
