
     RDKit          3D

 36 38  0  0  0  0  0  0  0  0999 V2000
    0.8132    1.7914   -3.9707 N   0  0  0  0  0  0  0  0  0  0  0  0
    1.2327    1.4625   -2.9393 C   0  0  0  0  0  0  0  0  0  0  0  0
    1.7139    1.1384   -1.7163 N   0  0  0  0  0  0  0  0  0  0  0  0
    0.9389    0.3775   -0.7793 C   0  0  0  0  0  0  0  0  0  0  0  0
    1.4559   -0.1684    0.2849 N   0  0  0  0  0  0  0  0  0  0  0  0
    2.8092   -0.3998    0.5252 C   0  0  0  0  0  0  0  0  0  0  0  0
    3.3009   -0.1018    1.8083 C   0  0  0  0  0  0  0  0  0  0  0  0
    4.6329   -0.4060    2.0913 C   0  0  0  0  0  0  0  0  0  0  0  0
    5.4664   -0.9665    1.1906 N   0  0  0  0  0  0  0  0  0  0  0  0
    4.9861   -1.2598   -0.0315 C   0  0  0  0  0  0  0  0  0  0  0  0
    3.6680   -0.9949   -0.4150 C   0  0  0  0  0  0  0  0  0  0  0  0
   -0.4119    0.2919   -1.0550 N   0  0  0  0  0  0  0  0  0  0  0  0
   -1.3213   -0.3715   -0.0751 C   0  0  0  0  0  0  0  0  0  0  0  0
   -1.5805    0.5783    1.0835 C   0  0  0  0  0  0  0  0  0  0  0  0
   -2.5556    0.2503    2.1912 C   0  0  0  0  0  0  0  0  0  0  0  0
   -2.8054    1.4366    1.2914 C   0  0  0  0  0  0  0  0  0  0  0  0
   -2.4464   -0.9110   -0.9466 C   0  0  0  0  0  0  0  0  0  0  0  0
   -3.4705   -0.0216   -1.6227 C   0  0  0  0  0  0  0  0  0  0  0  0
   -3.9026   -0.9991   -0.5585 C   0  0  0  0  0  0  0  0  0  0  0  0
    2.7310    1.1375   -1.5923 H   0  0  0  0  0  0  0  0  0  0  0  0
    2.6492    0.3449    2.5540 H   0  0  0  0  0  0  0  0  0  0  0  0
    5.0729   -0.1974    3.0743 H   0  0  0  0  0  0  0  0  0  0  0  0
    5.7002   -1.7261   -0.7222 H   0  0  0  0  0  0  0  0  0  0  0  0
    3.3117   -1.2838   -1.3964 H   0  0  0  0  0  0  0  0  0  0  0  0
   -0.8501    1.0328   -1.5966 H   0  0  0  0  0  0  0  0  0  0  0  0
   -0.7731   -1.2635    0.3667 H   0  0  0  0  0  0  0  0  0  0  0  0
   -0.6186    1.0208    1.4108 H   0  0  0  0  0  0  0  0  0  0  0  0
   -2.2583    0.4089    3.2249 H   0  0  0  0  0  0  0  0  0  0  0  0
   -3.1820   -0.6338    2.1227 H   0  0  0  0  0  0  0  0  0  0  0  0
   -2.6797    2.4434    1.6841 H   0  0  0  0  0  0  0  0  0  0  0  0
   -3.6307    1.4246    0.5883 H   0  0  0  0  0  0  0  0  0  0  0  0
   -2.0580   -1.7499   -1.5535 H   0  0  0  0  0  0  0  0  0  0  0  0
   -3.7304   -0.2037   -2.6628 H   0  0  0  0  0  0  0  0  0  0  0  0
   -3.4876    1.0451   -1.4216 H   0  0  0  0  0  0  0  0  0  0  0  0
   -4.2544   -0.6400    0.4032 H   0  0  0  0  0  0  0  0  0  0  0  0
   -4.4659   -1.8867   -0.8399 H   0  0  0  0  0  0  0  0  0  0  0  0
  1  2  3  0
  2  3  1  0
  3  4  1  0
  4  5  2  3
  5  6  1  0
  6  7  2  0
  7  8  1  0
  8  9  2  0
  9 10  1  0
 10 11  2  0
  4 12  1  0
 12 13  1  0
 13 14  1  0
 14 15  1  0
 15 16  1  0
 13 17  1  0
 17 18  1  0
 18 19  1  0
 11  6  1  0
 16 14  1  0
 19 17  1  0
  3 20  1  0
  7 21  1  0
  8 22  1  0
 10 23  1  0
 11 24  1  0
 12 25  1  0
 13 26  1  0
 14 27  1  0
 15 28  1  0
 15 29  1  0
 16 30  1  0
 16 31  1  0
 17 32  1  0
 18 33  1  0
 18 34  1  0
 19 35  1  0
 19 36  1  0
A    1
-0.517440
A    2
0.447831
A    3
-0.415770
A    4
0.536057
A    5
-0.519463
A    6
0.290589
A    7
-0.237573
A    8
0.101059
A    9
-0.381456
A   10
0.111339
A   11
-0.269873
A   12
-0.448093
A   13
0.149439
A   14
-0.057494
A   15
-0.232787
A   16
-0.237827
A   17
-0.050216
A   18
-0.240711
A   19
-0.234356
A   20
0.346731
A   21
0.132663
A   22
0.087309
A   23
0.084097
A   24
0.130857
A   25
0.293005
A   26
0.066093
A   27
0.082357
A   28
0.110200
A   29
0.109380
A   30
0.112774
A   31
0.110571
A   32
0.086379
A   33
0.114310
A   34
0.111594
A   35
0.114151
A   36
0.114273
M  END
$$$$
