
     RDKit          3D

 33 34  0  0  0  0  0  0  0  0999 V2000
    6.4600    1.5360    1.0285 Cl  0  0  0  0  0  0  0  0  0  0  0  0
    4.9843    0.9815    0.2188 C   0  0  0  0  0  0  0  0  0  0  0  0
    3.8046    1.3852    1.0888 C   0  0  0  0  0  0  0  0  0  0  0  0
    2.5928    1.1703    0.3646 O   0  0  0  0  0  0  0  0  0  0  0  0
    2.1745   -0.1041    0.2239 C   0  0  0  0  0  0  0  0  0  0  0  0
    2.8016   -1.0615    0.5928 O   0  0  0  0  0  0  0  0  0  0  0  0
    0.8300   -0.1151   -0.4904 C   0  0  0  0  0  0  0  0  0  0  0  0
   -0.1251    0.2827    0.4792 O   0  0  0  0  0  0  0  0  0  0  0  0
   -1.1068   -0.7181    0.6897 C   0  0  0  0  0  0  0  0  0  0  0  0
   -2.3772   -0.1749    0.1721 N   0  0  0  0  0  0  0  0  0  0  0  0
   -3.4151    0.0666    1.1073 C   0  0  0  0  0  0  0  0  0  0  0  0
   -3.3224   -0.3170    2.2532 O   0  0  0  0  0  0  0  0  0  0  0  0
   -4.5557    0.7191    0.6371 N   0  0  0  0  0  0  0  0  0  0  0  0
   -4.7268    1.1928   -0.6926 C   0  0  0  0  0  0  0  0  0  0  0  0
   -5.7550    1.7485   -0.9786 O   0  0  0  0  0  0  0  0  0  0  0  0
   -3.5796    0.9220   -1.5539 C   0  0  0  0  0  0  0  0  0  0  0  0
   -3.7011    1.3415   -2.8002 F   0  0  0  0  0  0  0  0  0  0  0  0
   -2.4561    0.2896   -1.1336 C   0  0  0  0  0  0  0  0  0  0  0  0
   -0.6695   -1.9874   -0.0586 C   0  0  0  0  0  0  0  0  0  0  0  0
    0.4746   -1.5366   -0.9784 C   0  0  0  0  0  0  0  0  0  0  0  0
    0.0137   -1.3446   -2.2976 O   0  0  0  0  0  0  0  0  0  0  0  0
    5.0664   -0.1142    0.1000 H   0  0  0  0  0  0  0  0  0  0  0  0
    4.9563    1.4519   -0.7779 H   0  0  0  0  0  0  0  0  0  0  0  0
    3.7716    0.8351    2.0488 H   0  0  0  0  0  0  0  0  0  0  0  0
    3.7549    2.4775    1.2817 H   0  0  0  0  0  0  0  0  0  0  0  0
    0.7894    0.6444   -1.3092 H   0  0  0  0  0  0  0  0  0  0  0  0
   -1.1704   -0.8314    1.8060 H   0  0  0  0  0  0  0  0  0  0  0  0
   -5.3136    0.8756    1.3099 H   0  0  0  0  0  0  0  0  0  0  0  0
   -1.5867    0.1005   -1.7866 H   0  0  0  0  0  0  0  0  0  0  0  0
   -0.3331   -2.7625    0.6551 H   0  0  0  0  0  0  0  0  0  0  0  0
   -1.4982   -2.4443   -0.6305 H   0  0  0  0  0  0  0  0  0  0  0  0
    1.3375   -2.2353   -0.9872 H   0  0  0  0  0  0  0  0  0  0  0  0
   -0.1014   -2.1950   -2.7669 H   0  0  0  0  0  0  0  0  0  0  0  0
  1  2  1  0
  2  3  1  0
  3  4  1  0
  4  5  1  0
  5  6  2  0
  5  7  1  0
  7  8  1  0
  8  9  1  0
  9 10  1  0
 10 11  1  0
 11 12  2  0
 11 13  1  0
 13 14  1  0
 14 15  2  0
 14 16  1  0
 16 17  1  0
 16 18  2  0
  9 19  1  0
 19 20  1  0
 20 21  1  0
 20  7  1  0
 18 10  1  0
  2 22  1  0
  2 23  1  0
  3 24  1  0
  3 25  1  0
  7 26  1  0
  9 27  1  0
 13 28  1  0
 18 29  1  0
 19 30  1  0
 19 31  1  0
 20 32  1  0
 21 33  1  0
A    1
-0.178830
A    2
-0.075621
A    3
0.060338
A    4
-0.273326
A    5
0.572109
A    6
-0.506597
A    7
0.005346
A    8
-0.308827
A    9
0.301513
A   10
-0.185957
A   11
0.637865
A   12
-0.587788
A   13
-0.462153
A   14
0.491169
A   15
-0.514291
A   16
0.056282
A   17
-0.117745
A   18
-0.047181
A   19
-0.301946
A   20
0.229023
A   21
-0.572451
A   22
0.113761
A   23
0.115207
A   24
0.083278
A   25
0.089959
A   26
0.095748
A   27
0.080966
A   28
0.351033
A   29
0.141355
A   30
0.124972
A   31
0.129757
A   32
0.053402
A   33
0.399629
M  END
$$$$
