
     RDKit          3D

 34 36  0  0  0  0  0  0  0  0999 V2000
   -3.1511   -1.2450    0.0925 S   0  0  0  0  0  0  0  0  0  0  0  0
   -3.9824   -1.7729   -0.9311 O   0  0  0  0  0  0  0  0  0  0  0  0
   -3.0312   -2.3504    1.2555 O   0  0  0  0  0  0  0  0  0  0  0  0
   -1.5510   -1.0234   -0.4622 N   0  0  0  0  0  0  0  0  0  0  0  0
   -0.7025   -0.1383    0.2172 C   0  0  0  0  0  0  0  0  0  0  0  0
    0.7778   -0.3904    0.0932 C   0  0  0  0  0  0  0  0  0  0  0  0
    1.2862   -1.3821    0.5549 O   0  0  0  0  0  0  0  0  0  0  0  0
    1.4784    0.6468   -0.4990 N   0  0  0  0  0  0  0  0  0  0  0  0
    2.8871    0.6099   -0.7078 C   0  0  0  0  0  0  0  0  0  0  0  0
    3.2744    1.4866   -1.6696 N   0  0  0  0  0  0  0  0  0  0  0  0
    4.5859    1.5847   -1.9400 C   0  0  0  0  0  0  0  0  0  0  0  0
    5.5512    0.8158   -1.2726 C   0  0  0  0  0  0  0  0  0  0  0  0
    5.1344   -0.0765   -0.2896 C   0  0  0  0  0  0  0  0  0  0  0  0
    3.7764   -0.1938    0.0141 C   0  0  0  0  0  0  0  0  0  0  0  0
   -1.1728    0.9000    0.9710 C   0  0  0  0  0  0  0  0  0  0  0  0
   -0.3905    1.8236    1.5725 O   0  0  0  0  0  0  0  0  0  0  0  0
   -2.5694    1.0977    1.2445 C   0  0  0  0  0  0  0  0  0  0  0  0
   -3.2671    2.4191    2.0512 S   0  0  0  0  0  0  0  0  0  0  0  0
   -4.8557    1.7935    1.8966 C   0  0  0  0  0  0  0  0  0  0  0  0
   -4.8628    0.5886    1.2418 C   0  0  0  0  0  0  0  0  0  0  0  0
   -3.5531    0.1712    0.8605 C   0  0  0  0  0  0  0  0  0  0  0  0
   -0.9223   -2.0857   -1.2683 C   0  0  0  0  0  0  0  0  0  0  0  0
   -3.3241   -3.2788    1.1248 H   0  0  0  0  0  0  0  0  0  0  0  0
    0.9791    1.3576   -1.0497 H   0  0  0  0  0  0  0  0  0  0  0  0
    4.8546    2.3081   -2.7237 H   0  0  0  0  0  0  0  0  0  0  0  0
    6.6058    0.9208   -1.5242 H   0  0  0  0  0  0  0  0  0  0  0  0
    5.8636   -0.6879    0.2493 H   0  0  0  0  0  0  0  0  0  0  0  0
    3.4368   -0.8888    0.7808 H   0  0  0  0  0  0  0  0  0  0  0  0
    0.5764    1.7313    1.3279 H   0  0  0  0  0  0  0  0  0  0  0  0
   -5.7286    2.3098    2.2776 H   0  0  0  0  0  0  0  0  0  0  0  0
   -5.7648    0.0197    1.0290 H   0  0  0  0  0  0  0  0  0  0  0  0
   -0.3790   -2.8271   -0.6464 H   0  0  0  0  0  0  0  0  0  0  0  0
   -1.6700   -2.6063   -1.8980 H   0  0  0  0  0  0  0  0  0  0  0  0
   -0.1892   -1.6386   -1.9731 H   0  0  0  0  0  0  0  0  0  0  0  0
  1  2  2  0
  1  3  1  0
  1  4  1  0
  4  5  1  0
  5  6  1  0
  6  7  2  0
  6  8  1  0
  8  9  1  0
  9 10  2  0
 10 11  1  0
 11 12  2  0
 12 13  1  0
 13 14  2  0
  5 15  2  0
 15 16  1  0
 15 17  1  0
 17 18  1  0
 18 19  1  0
 19 20  2  0
 20 21  1  0
  4 22  1  0
 21  1  1  0
 14  9  1  0
 17 21  2  0
  3 23  1  0
  8 24  1  0
 11 25  1  0
 12 26  1  0
 13 27  1  0
 14 28  1  0
 16 29  1  0
 19 30  1  0
 20 31  1  0
 22 32  1  0
 22 33  1  0
 22 34  1  0
M  CHG  1   1   1
A    1
1.153951
A    2
-0.482271
A    3
-0.561641
A    4
-0.156592
A    5
-0.087471
A    6
0.517462
A    7
-0.468017
A    8
-0.437812
A    9
0.383131
A   10
-0.411059
A   11
0.115457
A   12
-0.156787
A   13
-0.012477
A   14
-0.226422
A   15
0.197189
A   16
-0.438841
A   17
-0.023794
A   18
0.261181
A   19
-0.153889
A   20
-0.071695
A   21
-0.190579
A   22
-0.219169
A   23
0.482057
A   24
0.322459
A   25
0.098142
A   26
0.127284
A   27
0.120805
A   28
0.144743
A   29
0.392513
A   30
0.185577
A   31
0.154786
A   32
0.137905
A   33
0.148520
A   34
0.155353
M  END
$$$$
