
     RDKit          3D

 42 41  0  0  0  0  0  0  0  0999 V2000
    2.8883    1.1119    0.5772 O   0  0  0  0  0  0  0  0  0  0  0  0
    2.7543    0.0830   -0.0663 C   0  0  0  0  0  0  0  0  0  0  0  0
    3.7566   -0.6984   -0.5272 O   0  0  0  0  0  0  0  0  0  0  0  0
    5.1317   -0.2774   -0.3217 C   0  0  0  0  0  0  0  0  0  0  0  0
    5.8744   -1.4211   -1.0204 C   0  0  0  0  0  0  0  0  0  0  0  0
    5.4243   -0.2326    1.1714 C   0  0  0  0  0  0  0  0  0  0  0  0
    5.3582    1.0594   -1.0144 C   0  0  0  0  0  0  0  0  0  0  0  0
    1.5506   -0.4649   -0.4329 N   0  0  0  0  0  0  0  0  0  0  0  0
    0.3005    0.1407    0.0286 C   0  0  0  0  0  0  0  0  0  0  0  0
   -0.8620   -0.8000   -0.3116 C   0  0  0  0  0  0  0  0  0  0  0  0
   -0.6960   -1.7701   -1.0127 O   0  0  0  0  0  0  0  0  0  0  0  0
   -2.1091   -0.4393    0.2598 C   0  0  0  0  0  0  0  0  0  0  0  0
   -3.1819   -0.1470    0.7457 C   0  0  0  0  0  0  0  0  0  0  0  0
   -4.4470    0.2013    1.3143 C   0  0  0  0  0  0  0  0  0  0  0  0
   -5.5804   -0.5982    0.6437 C   0  0  0  0  0  0  0  0  0  0  0  0
   -6.9383   -0.2262    1.2490 C   0  0  0  0  0  0  0  0  0  0  0  0
   -8.0601   -1.0179    0.5777 C   0  0  0  0  0  0  0  0  0  0  0  0
    0.0682    1.5300   -0.6262 C   0  0  0  0  0  0  0  0  0  0  0  0
    0.6377    2.5288    0.1765 O   0  0  0  0  0  0  0  0  0  0  0  0
    5.6345   -2.3889   -0.5623 H   0  0  0  0  0  0  0  0  0  0  0  0
    6.9574   -1.2764   -0.9627 H   0  0  0  0  0  0  0  0  0  0  0  0
    5.5947   -1.4891   -2.0792 H   0  0  0  0  0  0  0  0  0  0  0  0
    5.1141   -1.1591    1.6689 H   0  0  0  0  0  0  0  0  0  0  0  0
    6.4915   -0.0859    1.3653 H   0  0  0  0  0  0  0  0  0  0  0  0
    4.8845    0.5922    1.6633 H   0  0  0  0  0  0  0  0  0  0  0  0
    4.8240    1.8748   -0.5022 H   0  0  0  0  0  0  0  0  0  0  0  0
    5.0003    1.0407   -2.0504 H   0  0  0  0  0  0  0  0  0  0  0  0
    6.4200    1.3261   -1.0291 H   0  0  0  0  0  0  0  0  0  0  0  0
    1.4923   -1.3144   -0.9859 H   0  0  0  0  0  0  0  0  0  0  0  0
    0.3435    0.2863    1.1481 H   0  0  0  0  0  0  0  0  0  0  0  0
   -4.4502    0.0128    2.4159 H   0  0  0  0  0  0  0  0  0  0  0  0
   -4.6408    1.2970    1.2102 H   0  0  0  0  0  0  0  0  0  0  0  0
   -5.3966   -1.6843    0.7575 H   0  0  0  0  0  0  0  0  0  0  0  0
   -5.5839   -0.4081   -0.4471 H   0  0  0  0  0  0  0  0  0  0  0  0
   -7.1239    0.8591    1.1360 H   0  0  0  0  0  0  0  0  0  0  0  0
   -6.9391   -0.4224    2.3383 H   0  0  0  0  0  0  0  0  0  0  0  0
   -7.9214   -2.0981    0.7021 H   0  0  0  0  0  0  0  0  0  0  0  0
   -9.0368   -0.7624    1.0040 H   0  0  0  0  0  0  0  0  0  0  0  0
   -8.1095   -0.8139   -0.4981 H   0  0  0  0  0  0  0  0  0  0  0  0
   -1.0038    1.7980   -0.6641 H   0  0  0  0  0  0  0  0  0  0  0  0
    0.5038    1.5795   -1.6406 H   0  0  0  0  0  0  0  0  0  0  0  0
    1.5649    2.2658    0.4187 H   0  0  0  0  0  0  0  0  0  0  0  0
  1  2  2  0
  2  3  1  0
  3  4  1  0
  4  5  1  0
  4  6  1  0
  4  7  1  0
  2  8  1  0
  8  9  1  0
  9 10  1  0
 10 11  2  0
 10 12  1  0
 12 13  3  0
 13 14  1  0
 14 15  1  0
 15 16  1  0
 16 17  1  0
  9 18  1  0
 18 19  1  0
  5 20  1  0
  5 21  1  0
  5 22  1  0
  6 23  1  0
  6 24  1  0
  6 25  1  0
  7 26  1  0
  7 27  1  0
  7 28  1  0
  8 29  1  0
  9 30  1  0
 14 31  1  0
 14 32  1  0
 15 33  1  0
 15 34  1  0
 16 35  1  0
 16 36  1  0
 17 37  1  0
 17 38  1  0
 17 39  1  0
 18 40  1  0
 18 41  1  0
 19 42  1  0
A    1
-0.574520
A    2
0.733789
A    3
-0.366594
A    4
0.454007
A    5
-0.424168
A    6
-0.440684
A    7
-0.440878
A    8
-0.496255
A    9
0.021457
A   10
0.486363
A   11
-0.441012
A   12
-0.285481
A   13
0.074378
A   14
-0.119743
A   15
-0.119498
A   16
-0.078752
A   17
-0.326502
A   18
0.081058
A   19
-0.571779
A   20
0.122189
A   21
0.122860
A   22
0.122006
A   23
0.123149
A   24
0.127259
A   25
0.124667
A   26
0.125534
A   27
0.123448
A   28
0.127774
A   29
0.312739
A   30
0.094886
A   31
0.119092
A   32
0.116675
A   33
0.078177
A   34
0.077637
A   35
0.065446
A   36
0.066294
A   37
0.099728
A   38
0.098770
A   39
0.099582
A   40
0.066497
A   41
0.060630
A   42
0.359774
M  END
$$$$
