
     RDKit          3D

 37 37  0  0  0  0  0  0  0  0999 V2000
   -3.0564   -0.7203   -0.1212 S   0  0  0  0  0  0  0  0  0  0  0  0
   -1.4411   -0.8866    0.1327 N   0  0  0  0  0  0  0  0  0  0  0  0
   -0.6718   -1.4523    1.5271 S   0  0  0  0  0  0  0  0  0  0  0  0
   -0.6022   -2.8998    1.5329 O   0  0  0  0  0  0  0  0  0  0  0  0
   -1.3130   -0.7753    2.6512 O   0  0  0  0  0  0  0  0  0  0  0  0
    0.9582   -0.8194    1.3302 C   0  0  0  0  0  0  0  0  0  0  0  0
    1.2808    0.4385    1.8378 C   0  0  0  0  0  0  0  0  0  0  0  0
    2.5554    0.9615    1.6537 C   0  0  0  0  0  0  0  0  0  0  0  0
    3.5159    0.2153    0.9483 C   0  0  0  0  0  0  0  0  0  0  0  0
    4.7995    0.7778    0.7790 N   0  0  0  0  0  0  0  0  0  0  0  0
    5.6016    0.7132   -0.3675 C   0  0  0  0  0  0  0  0  0  0  0  0
    6.6886    1.2469   -0.2941 O   0  0  0  0  0  0  0  0  0  0  0  0
    5.0917    0.0597   -1.6113 C   0  0  0  0  0  0  0  0  0  0  0  0
    3.2038   -1.0662    0.4746 C   0  0  0  0  0  0  0  0  0  0  0  0
    1.9208   -1.5731    0.6638 C   0  0  0  0  0  0  0  0  0  0  0  0
   -3.0037    0.0826   -1.7811 C   0  0  0  0  0  0  0  0  0  0  0  0
   -4.2292   -0.2934   -2.5914 C   0  0  0  0  0  0  0  0  0  0  0  0
   -3.6272    0.6644    0.9330 C   0  0  0  0  0  0  0  0  0  0  0  0
   -5.1137    0.9080    0.7669 C   0  0  0  0  0  0  0  0  0  0  0  0
    0.5363    1.0249    2.3903 H   0  0  0  0  0  0  0  0  0  0  0  0
    2.8014    1.9461    2.0420 H   0  0  0  0  0  0  0  0  0  0  0  0
    5.1606    1.3419    1.5498 H   0  0  0  0  0  0  0  0  0  0  0  0
    5.3734   -1.0038   -1.6460 H   0  0  0  0  0  0  0  0  0  0  0  0
    5.5513    0.5336   -2.4969 H   0  0  0  0  0  0  0  0  0  0  0  0
    4.0015    0.1294   -1.7296 H   0  0  0  0  0  0  0  0  0  0  0  0
    3.9587   -1.6773   -0.0111 H   0  0  0  0  0  0  0  0  0  0  0  0
    1.6845   -2.5784    0.2929 H   0  0  0  0  0  0  0  0  0  0  0  0
   -2.8989    1.1772   -1.6954 H   0  0  0  0  0  0  0  0  0  0  0  0
   -2.0740   -0.2523   -2.2918 H   0  0  0  0  0  0  0  0  0  0  0  0
   -4.3177   -1.3781   -2.7465 H   0  0  0  0  0  0  0  0  0  0  0  0
   -4.1817    0.1567   -3.5946 H   0  0  0  0  0  0  0  0  0  0  0  0
   -5.1669    0.0544   -2.1398 H   0  0  0  0  0  0  0  0  0  0  0  0
   -3.3857    0.3974    1.9915 H   0  0  0  0  0  0  0  0  0  0  0  0
   -3.0469    1.5858    0.7526 H   0  0  0  0  0  0  0  0  0  0  0  0
   -5.7168    0.0099    0.9594 H   0  0  0  0  0  0  0  0  0  0  0  0
   -5.3761    1.2847   -0.2293 H   0  0  0  0  0  0  0  0  0  0  0  0
   -5.4614    1.6663    1.4859 H   0  0  0  0  0  0  0  0  0  0  0  0
  1  2  2  3
  2  3  1  0
  3  4  2  0
  3  5  2  0
  3  6  1  0
  6  7  2  0
  7  8  1  0
  8  9  2  0
  9 10  1  0
 10 11  1  0
 11 12  2  0
 11 13  1  0
  9 14  1  0
 14 15  2  0
  1 16  1  0
 16 17  1  0
  1 18  1  0
 18 19  1  0
 15  6  1  0
  7 20  1  0
  8 21  1  0
 10 22  1  0
 13 23  1  0
 13 24  1  0
 13 25  1  0
 14 26  1  0
 15 27  1  0
 16 28  1  0
 16 29  1  0
 17 30  1  0
 17 31  1  0
 17 32  1  0
 18 33  1  0
 18 34  1  0
 19 35  1  0
 19 36  1  0
 19 37  1  0
A    1
0.552662
A    2
-0.780758
A    3
1.196922
A    4
-0.615809
A    5
-0.639478
A    6
-0.106649
A    7
-0.061378
A    8
-0.189700
A    9
0.251534
A   10
-0.454299
A   11
0.647527
A   12
-0.587666
A   13
-0.480217
A   14
-0.186509
A   15
-0.058302
A   16
-0.149871
A   17
-0.328859
A   18
-0.192638
A   19
-0.319999
A   20
0.122361
A   21
0.131105
A   22
0.324760
A   23
0.157799
A   24
0.156312
A   25
0.142680
A   26
0.129616
A   27
0.124979
A   28
0.118103
A   29
0.135209
A   30
0.117057
A   31
0.129210
A   32
0.108891
A   33
0.138432
A   34
0.119433
A   35
0.112330
A   36
0.108406
A   37
0.126803
M  END
$$$$
